<?xml version="1.0" encoding="utf-8"?>
<!DOCTYPE population SYSTEM "http://www.matsim.org/files/dtd/population_v6.dtd">

<population>

	<attributes>
		<attribute name="coordinateReferenceSystem" class="java.lang.String">EPSG:2157</attribute>
	</attributes>


<!-- ====================================================================== -->

	<person id="Ella">
		<attributes>
			<attribute name="hid" class="java.lang.String">Ella</attribute>
			<attribute name="subpopulation" class="java.lang.String">low income</attribute>
			<attribute name="vehicles" class="org.matsim.vehicles.PersonVehicles">{"car":"Ella","walk":"Ella_walk","bike":"Ella_bike"}</attribute>
		</attributes>
		<plan score="107.07431434561717" selected="no">
			<activity type="home" link="2-3" x="10100.0" y="5100.0" end_time="07:25:00" >
			</activity>
			<leg mode="walk" dep_time="07:25:00" trav_time="00:00:00">
				<attributes>
					<attribute name="routingMode" class="java.lang.String">train</attribute>
				</attributes>
				<route type="generic" start_link="2-3" end_link="3-3rail" trav_time="00:00:00" distance="0.0"></route>
			</leg>
			<activity type="pt interaction" link="3-3rail" x="10100.0" y="5100.0" max_dur="00:00:00" >
			</activity>
			<leg mode="train" dep_time="07:25:00" trav_time="00:16:00">
				<attributes>
					<attribute name="routingMode" class="java.lang.String">train</attribute>
				</attributes>
				<route type="default_pt" start_link="3-3rail" end_link="2-2rail" trav_time="00:16:00" distance="5010.0">{"transitRouteId":"city_rail","boardingTime":"07:31:00","transitLineId":"city_rail","accessFacilityId":"F","egressFacilityId":"E"}</route>
			</leg>
			<activity type="pt interaction" link="2-2rail" x="5100.0" y="5000.0" max_dur="00:00:00" >
			</activity>
			<leg mode="walk" dep_time="07:41:00" trav_time="00:02:31">
				<attributes>
					<attribute name="routingMode" class="java.lang.String">train</attribute>
				</attributes>
				<route type="generic" start_link="2-2rail" end_link="2-2" trav_time="00:02:31" distance="130.0"></route>
			</leg>
			<activity type="pt interaction" link="2-2" x="5000.0" y="5000.0" max_dur="00:00:00" >
			</activity>
			<leg mode="bus" dep_time="07:43:36" trav_time="00:36:24">
				<attributes>
					<attribute name="routingMode" class="java.lang.String">train</attribute>
				</attributes>
				<route type="default_pt" start_link="2-2" end_link="4-4" trav_time="00:36:24" distance="5001.0">{"transitRouteId":"city_bus","boardingTime":"08:10:00","transitLineId":"city_bus","accessFacilityId":"B","egressFacilityId":"C"}</route>
			</leg>
			<activity type="pt interaction" link="4-4" x="5000.0" y="10000.0" max_dur="00:00:00" >
			</activity>
			<leg mode="walk" dep_time="08:20:00" trav_time="00:02:36">
				<attributes>
					<attribute name="routingMode" class="java.lang.String">train</attribute>
				</attributes>
				<route type="generic" start_link="4-4" end_link="2-4" trav_time="00:02:36" distance="130.0"></route>
			</leg>
			<activity type="education" link="2-4" x="5100.0" y="10000.0" end_time="16:30:00" >
			</activity>
			<leg mode="walk" dep_time="16:30:00" trav_time="00:02:36">
				<attributes>
					<attribute name="routingMode" class="java.lang.String">train</attribute>
				</attributes>
				<route type="generic" start_link="2-4" end_link="4-4" trav_time="00:02:36" distance="130.0"></route>
			</leg>
			<activity type="pt interaction" link="4-4" x="5000.0" y="10000.0" max_dur="00:00:00" >
			</activity>
			<leg mode="bus" dep_time="16:32:36" trav_time="00:27:24">
				<attributes>
					<attribute name="routingMode" class="java.lang.String">train</attribute>
				</attributes>
				<route type="default_pt" start_link="4-4" end_link="2-2" trav_time="00:27:24" distance="5001.0">{"transitRouteId":"city_bus","boardingTime":"16:50:00","transitLineId":"city_bus","accessFacilityId":"C","egressFacilityId":"B"}</route>
			</leg>
			<activity type="pt interaction" link="2-2" x="5000.0" y="5000.0" max_dur="00:00:00" >
			</activity>
			<leg mode="walk" dep_time="17:00:00" trav_time="00:02:31">
				<attributes>
					<attribute name="routingMode" class="java.lang.String">train</attribute>
				</attributes>
				<route type="generic" start_link="2-2" end_link="2-2rail" trav_time="00:02:31" distance="130.0"></route>
			</leg>
			<activity type="pt interaction" link="2-2rail" x="5100.0" y="5000.0" max_dur="00:00:00" >
			</activity>
			<leg mode="train" dep_time="17:02:36" trav_time="00:18:24">
				<attributes>
					<attribute name="routingMode" class="java.lang.String">train</attribute>
				</attributes>
				<route type="default_pt" start_link="2-2rail" end_link="3-3rail" trav_time="00:18:24" distance="5010.0">{"transitRouteId":"city_rail","boardingTime":"17:11:00","transitLineId":"city_rail","accessFacilityId":"E","egressFacilityId":"F"}</route>
			</leg>
			<activity type="pt interaction" link="3-3rail" x="10100.0" y="5100.0" max_dur="00:00:00" >
			</activity>
			<leg mode="walk" dep_time="17:21:00" trav_time="00:02:36">
				<attributes>
					<attribute name="routingMode" class="java.lang.String">train</attribute>
				</attributes>
				<route type="generic" start_link="3-3rail" end_link="2-3" trav_time="00:02:36" distance="130.0"></route>
			</leg>
			<activity type="home" link="2-3" x="10000.0" y="5100.0" >
			</activity>
		</plan>

		<plan score="106.51148853196243" selected="no">
			<activity type="home" link="2-3" x="10100.0" y="5100.0" end_time="07:26:50" >
			</activity>
			<leg mode="walk" dep_time="07:26:50" trav_time="00:00:00">
				<attributes>
					<attribute name="routingMode" class="java.lang.String">train</attribute>
				</attributes>
				<route type="generic" start_link="2-3" end_link="3-3rail" trav_time="00:00:00" distance="0.0"></route>
			</leg>
			<activity type="pt interaction" link="3-3rail" x="10100.0" y="5100.0" max_dur="00:00:00" >
			</activity>
			<leg mode="train" dep_time="07:26:50" trav_time="00:14:10">
				<attributes>
					<attribute name="routingMode" class="java.lang.String">train</attribute>
				</attributes>
				<route type="default_pt" start_link="3-3rail" end_link="2-2rail" trav_time="00:14:10" distance="5010.0">{"transitRouteId":"city_rail","boardingTime":"07:31:00","transitLineId":"city_rail","accessFacilityId":"F","egressFacilityId":"E"}</route>
			</leg>
			<activity type="pt interaction" link="2-2rail" x="5100.0" y="5000.0" max_dur="00:00:00" >
			</activity>
			<leg mode="walk" dep_time="07:41:00" trav_time="00:02:31">
				<attributes>
					<attribute name="routingMode" class="java.lang.String">train</attribute>
				</attributes>
				<route type="generic" start_link="2-2rail" end_link="2-2" trav_time="00:02:31" distance="130.0"></route>
			</leg>
			<activity type="pt interaction" link="2-2" x="5000.0" y="5000.0" max_dur="00:00:00" >
			</activity>
			<leg mode="bus" dep_time="07:43:36" trav_time="00:36:24">
				<attributes>
					<attribute name="routingMode" class="java.lang.String">train</attribute>
				</attributes>
				<route type="default_pt" start_link="2-2" end_link="4-4" trav_time="00:36:24" distance="5001.0">{"transitRouteId":"city_bus","boardingTime":"08:10:00","transitLineId":"city_bus","accessFacilityId":"B","egressFacilityId":"C"}</route>
			</leg>
			<activity type="pt interaction" link="4-4" x="5000.0" y="10000.0" max_dur="00:00:00" >
			</activity>
			<leg mode="walk" dep_time="08:20:00" trav_time="00:02:36">
				<attributes>
					<attribute name="routingMode" class="java.lang.String">train</attribute>
				</attributes>
				<route type="generic" start_link="4-4" end_link="2-4" trav_time="00:02:36" distance="130.0"></route>
			</leg>
			<activity type="education" link="2-4" x="5100.0" y="10000.0" end_time="16:24:22" >
			</activity>
			<leg mode="walk" dep_time="16:24:22" trav_time="00:02:36">
				<attributes>
					<attribute name="routingMode" class="java.lang.String">train</attribute>
				</attributes>
				<route type="generic" start_link="2-4" end_link="4-4" trav_time="00:02:36" distance="130.0"></route>
			</leg>
			<activity type="pt interaction" link="4-4" x="5000.0" y="10000.0" max_dur="00:00:00" >
			</activity>
			<leg mode="bus" dep_time="16:26:58" trav_time="00:33:02">
				<attributes>
					<attribute name="routingMode" class="java.lang.String">train</attribute>
				</attributes>
				<route type="default_pt" start_link="4-4" end_link="2-2" trav_time="00:33:02" distance="5001.0">{"transitRouteId":"city_bus","boardingTime":"16:50:00","transitLineId":"city_bus","accessFacilityId":"C","egressFacilityId":"B"}</route>
			</leg>
			<activity type="pt interaction" link="2-2" x="5000.0" y="5000.0" max_dur="00:00:00" >
			</activity>
			<leg mode="walk" dep_time="17:00:00" trav_time="00:02:31">
				<attributes>
					<attribute name="routingMode" class="java.lang.String">train</attribute>
				</attributes>
				<route type="generic" start_link="2-2" end_link="2-2rail" trav_time="00:02:31" distance="130.0"></route>
			</leg>
			<activity type="pt interaction" link="2-2rail" x="5100.0" y="5000.0" max_dur="00:00:00" >
			</activity>
			<leg mode="train" dep_time="17:02:36" trav_time="00:18:24">
				<attributes>
					<attribute name="routingMode" class="java.lang.String">train</attribute>
				</attributes>
				<route type="default_pt" start_link="2-2rail" end_link="3-3rail" trav_time="00:18:24" distance="5010.0">{"transitRouteId":"city_rail","boardingTime":"17:11:00","transitLineId":"city_rail","accessFacilityId":"E","egressFacilityId":"F"}</route>
			</leg>
			<activity type="pt interaction" link="3-3rail" x="10100.0" y="5100.0" max_dur="00:00:00" >
			</activity>
			<leg mode="walk" dep_time="17:21:00" trav_time="00:02:36">
				<attributes>
					<attribute name="routingMode" class="java.lang.String">train</attribute>
				</attributes>
				<route type="generic" start_link="3-3rail" end_link="2-3" trav_time="00:02:36" distance="130.0"></route>
			</leg>
			<activity type="home" link="2-3" x="10000.0" y="5100.0" >
			</activity>
		</plan>

		<plan score="107.07431434561717" selected="no">
			<activity type="home" link="2-3" x="10100.0" y="5100.0" end_time="07:25:00" >
			</activity>
			<leg mode="walk" dep_time="07:25:00" trav_time="00:00:00">
				<attributes>
					<attribute name="routingMode" class="java.lang.String">train</attribute>
				</attributes>
				<route type="generic" start_link="2-3" end_link="3-3rail" trav_time="00:00:00" distance="0.0"></route>
			</leg>
			<activity type="pt interaction" link="3-3rail" x="10100.0" y="5100.0" max_dur="00:00:00" >
			</activity>
			<leg mode="train" dep_time="07:25:00" trav_time="00:16:00">
				<attributes>
					<attribute name="routingMode" class="java.lang.String">train</attribute>
				</attributes>
				<route type="default_pt" start_link="3-3rail" end_link="2-2rail" trav_time="00:16:00" distance="5010.0">{"transitRouteId":"city_rail","boardingTime":"07:31:00","transitLineId":"city_rail","accessFacilityId":"F","egressFacilityId":"E"}</route>
			</leg>
			<activity type="pt interaction" link="2-2rail" x="5100.0" y="5000.0" max_dur="00:00:00" >
			</activity>
			<leg mode="walk" dep_time="07:41:00" trav_time="00:02:31">
				<attributes>
					<attribute name="routingMode" class="java.lang.String">train</attribute>
				</attributes>
				<route type="generic" start_link="2-2rail" end_link="2-2" trav_time="00:02:31" distance="130.0"></route>
			</leg>
			<activity type="pt interaction" link="2-2" x="5000.0" y="5000.0" max_dur="00:00:00" >
			</activity>
			<leg mode="bus" dep_time="07:43:36" trav_time="00:36:24">
				<attributes>
					<attribute name="routingMode" class="java.lang.String">train</attribute>
				</attributes>
				<route type="default_pt" start_link="2-2" end_link="4-4" trav_time="00:36:24" distance="5001.0">{"transitRouteId":"city_bus","boardingTime":"08:10:00","transitLineId":"city_bus","accessFacilityId":"B","egressFacilityId":"C"}</route>
			</leg>
			<activity type="pt interaction" link="4-4" x="5000.0" y="10000.0" max_dur="00:00:00" >
			</activity>
			<leg mode="walk" dep_time="08:20:00" trav_time="00:02:36">
				<attributes>
					<attribute name="routingMode" class="java.lang.String">train</attribute>
				</attributes>
				<route type="generic" start_link="4-4" end_link="2-4" trav_time="00:02:36" distance="130.0"></route>
			</leg>
			<activity type="education" link="2-4" x="5100.0" y="10000.0" end_time="16:30:00" >
			</activity>
			<leg mode="walk" dep_time="16:30:00" trav_time="00:02:36">
				<attributes>
					<attribute name="routingMode" class="java.lang.String">train</attribute>
				</attributes>
				<route type="generic" start_link="2-4" end_link="4-4" trav_time="00:02:36" distance="130.0"></route>
			</leg>
			<activity type="pt interaction" link="4-4" x="5000.0" y="10000.0" max_dur="00:00:00" >
			</activity>
			<leg mode="bus" dep_time="16:32:36" trav_time="00:27:24">
				<attributes>
					<attribute name="routingMode" class="java.lang.String">train</attribute>
				</attributes>
				<route type="default_pt" start_link="4-4" end_link="2-2" trav_time="00:27:24" distance="5001.0">{"transitRouteId":"city_bus","boardingTime":"16:50:00","transitLineId":"city_bus","accessFacilityId":"C","egressFacilityId":"B"}</route>
			</leg>
			<activity type="pt interaction" link="2-2" x="5000.0" y="5000.0" max_dur="00:00:00" >
			</activity>
			<leg mode="walk" dep_time="17:00:00" trav_time="00:02:31">
				<attributes>
					<attribute name="routingMode" class="java.lang.String">train</attribute>
				</attributes>
				<route type="generic" start_link="2-2" end_link="2-2rail" trav_time="00:02:31" distance="130.0"></route>
			</leg>
			<activity type="pt interaction" link="2-2rail" x="5100.0" y="5000.0" max_dur="00:00:00" >
			</activity>
			<leg mode="train" dep_time="17:02:36" trav_time="00:18:24">
				<attributes>
					<attribute name="routingMode" class="java.lang.String">train</attribute>
				</attributes>
				<route type="default_pt" start_link="2-2rail" end_link="3-3rail" trav_time="00:18:24" distance="5010.0">{"transitRouteId":"city_rail","boardingTime":"17:11:00","transitLineId":"city_rail","accessFacilityId":"E","egressFacilityId":"F"}</route>
			</leg>
			<activity type="pt interaction" link="3-3rail" x="10100.0" y="5100.0" max_dur="00:00:00" >
			</activity>
			<leg mode="walk" dep_time="17:21:00" trav_time="00:02:36">
				<attributes>
					<attribute name="routingMode" class="java.lang.String">train</attribute>
				</attributes>
				<route type="generic" start_link="3-3rail" end_link="2-3" trav_time="00:02:36" distance="130.0"></route>
			</leg>
			<activity type="home" link="2-3" x="10000.0" y="5100.0" >
			</activity>
		</plan>

		<plan score="127.76699714278072" selected="yes">
			<activity type="home" link="2-3" x="10100.0" y="5100.0" end_time="07:25:00" >
			</activity>
			<leg mode="bike" dep_time="07:25:00" trav_time="00:22:28">
				<attributes>
					<attribute name="routingMode" class="java.lang.String">bike</attribute>
				</attributes>
				<route type="links" start_link="2-3" end_link="2-4" trav_time="00:22:28" distance="10000.0" vehicleRefId="null">2-3 3-2 2-4</route>
			</leg>
			<activity type="education" link="2-4" x="5100.0" y="10000.0" end_time="16:30:00" >
			</activity>
			<leg mode="bike" dep_time="16:30:00" trav_time="00:22:28">
				<attributes>
					<attribute name="routingMode" class="java.lang.String">bike</attribute>
				</attributes>
				<route type="links" start_link="2-4" end_link="2-3" trav_time="00:22:28" distance="10000.0" vehicleRefId="null">2-4 4-2 2-3</route>
			</leg>
			<activity type="home" link="2-3" x="10000.0" y="5100.0" >
			</activity>
		</plan>

	</person>

<!-- ====================================================================== -->

	<person id="Tom">
		<attributes>
			<attribute name="hid" class="java.lang.String">Tom</attribute>
			<attribute name="subpopulation" class="java.lang.String">medium income</attribute>
			<attribute name="vehicles" class="org.matsim.vehicles.PersonVehicles">{"car":"Tom","walk":"Tom_walk","bike":"Tom_bike"}</attribute>
		</attributes>
		<plan score="127.75693120607305" selected="no">
			<activity type="home" link="1-1" x="0.0" y="5100.0" end_time="07:25:00" >
			</activity>
			<leg mode="bike" dep_time="07:25:00" trav_time="00:23:07">
				<attributes>
					<attribute name="routingMode" class="java.lang.String">bike</attribute>
				</attributes>
				<route type="links" start_link="1-1" end_link="2-3" trav_time="00:23:07" distance="10000.0" vehicleRefId="null">1-1 1-2 2-3</route>
			</leg>
			<activity type="work" link="2-3" x="5100.0" y="5100.0" end_time="16:30:00" >
			</activity>
			<leg mode="bike" dep_time="16:30:00" trav_time="00:46:10">
				<attributes>
					<attribute name="routingMode" class="java.lang.String">bike</attribute>
				</attributes>
				<route type="links" start_link="2-3" end_link="1-1" trav_time="00:46:10" distance="10010.0" vehicleRefId="null">2-3 3-2 2-1 1-1</route>
			</leg>
			<activity type="home" link="1-1" x="0.0" y="5100.0" >
			</activity>
		</plan>

		<plan score="127.75693120607305" selected="no">
			<activity type="home" link="1-1" x="0.0" y="5100.0" end_time="07:25:00" >
			</activity>
			<leg mode="bike" dep_time="07:25:00" trav_time="00:23:07">
				<attributes>
					<attribute name="routingMode" class="java.lang.String">bike</attribute>
				</attributes>
				<route type="links" start_link="1-1" end_link="2-3" trav_time="00:23:07" distance="10000.0" vehicleRefId="null">1-1 1-2 2-3</route>
			</leg>
			<activity type="work" link="2-3" x="5100.0" y="5100.0" end_time="16:30:00" >
			</activity>
			<leg mode="bike" dep_time="16:30:00" trav_time="00:46:10">
				<attributes>
					<attribute name="routingMode" class="java.lang.String">bike</attribute>
				</attributes>
				<route type="links" start_link="2-3" end_link="1-1" trav_time="00:46:10" distance="10010.0" vehicleRefId="null">2-3 3-2 2-1 1-1</route>
			</leg>
			<activity type="home" link="1-1" x="0.0" y="5100.0" >
			</activity>
		</plan>

		<plan score="128.00229687292187" selected="no">
			<activity type="home" link="1-1" x="0.0" y="5100.0" end_time="07:19:43" >
			</activity>
			<leg mode="bike" dep_time="07:19:43" trav_time="00:23:07">
				<attributes>
					<attribute name="routingMode" class="java.lang.String">bike</attribute>
				</attributes>
				<route type="links" start_link="1-1" end_link="2-3" trav_time="00:23:07" distance="10000.0" vehicleRefId="null">1-1 1-2 2-3</route>
			</leg>
			<activity type="work" link="2-3" x="5100.0" y="5100.0" end_time="16:45:42" >
			</activity>
			<leg mode="bike" dep_time="16:45:42" trav_time="00:46:10">
				<attributes>
					<attribute name="routingMode" class="java.lang.String">bike</attribute>
				</attributes>
				<route type="links" start_link="2-3" end_link="1-1" trav_time="00:46:10" distance="10010.0" vehicleRefId="null">2-3 3-2 2-1 1-1</route>
			</leg>
			<activity type="home" link="1-1" x="0.0" y="5100.0" >
			</activity>
		</plan>

		<plan score="132.41759787273972" selected="yes">
			<activity type="home" link="1-1" x="0.0" y="5100.0" end_time="07:25:00" >
			</activity>
			<leg mode="walk" dep_time="07:25:00" trav_time="01:55:13">
				<attributes>
					<attribute name="routingMode" class="java.lang.String">walk</attribute>
				</attributes>
				<route type="links" start_link="1-1" end_link="2-3" trav_time="01:55:13" distance="10000.0" vehicleRefId="null">1-1 1-2 2-3</route>
			</leg>
			<activity type="work" link="2-3" x="5100.0" y="5100.0" end_time="16:30:00" >
			</activity>
			<leg mode="walk" dep_time="16:30:00" trav_time="03:50:26">
				<attributes>
					<attribute name="routingMode" class="java.lang.String">walk</attribute>
				</attributes>
				<route type="links" start_link="2-3" end_link="1-1" trav_time="03:50:26" distance="10010.0" vehicleRefId="null">2-3 3-2 2-1 1-1</route>
			</leg>
			<activity type="home" link="1-1" x="0.0" y="5100.0" >
			</activity>
		</plan>

	</person>

<!-- ====================================================================== -->

</population>
