<?xml version="1.0" encoding="utf-8"?>
<!DOCTYPE population SYSTEM "http://www.matsim.org/files/dtd/population_v6.dtd">

<population>



<!-- ====================================================================== -->

	<person id="chris">
		<plan score="129.464432800573" selected="yes">
			<activity type="home" link="1-2" x="0.0" y="0.0" end_time="07:00:00" >
			</activity>
			<leg mode="car" dep_time="07:00:00" trav_time="00:07:34">
				<route type="links" start_link="1-2" end_link="3-4" trav_time="00:07:34" distance="10100.0">1-2 2-3 3-4</route>
			</leg>
			<activity type="work" link="3-4" x="10100.0" y="0.0" end_time="16:30:00" >
			</activity>
			<leg mode="car" dep_time="16:30:00" trav_time="00:07:43">
				<route type="links" start_link="3-4" end_link="1-2" trav_time="00:07:43" distance="10300.0">3-4 4-3 3-2 2-1 1-2</route>
			</leg>
			<activity type="home" link="1-2" x="0.0" y="0.0" >
			</activity>
		</plan>

		<plan score="89.464432800573" selected="no">
			<activity type="home" link="1-2" x="0.0" y="0.0" end_time="07:00:00" >
			</activity>
			<leg mode="walk" dep_time="07:00:00" trav_time="00:13:34">
				<route type="links" start_link="1-2" end_link="3-4" trav_time="00:13:34" distance="10100.0">1-2 2-3 3-4</route>
			</leg>
			<activity type="work" link="3-4" x="10100.0" y="0.0" end_time="16:30:00" >
			</activity>
			<leg mode="walk" dep_time="16:30:00" trav_time="00:20:43">
				<route type="links" start_link="3-4" end_link="1-2" trav_time="00:20:43" distance="10300.0">3-4 4-3 3-2 2-1 1-2</route>
			</leg>
			<activity type="home" link="1-2" x="0.0" y="0.0" >
			</activity>
		</plan>

	</person>

<!-- ====================================================================== -->

	<person id="fatema">
		<plan score="111.87873939522729" selected="yes">
			<activity type="home" link="1-2" x="0.0" y="0.0" end_time="08:00:00" >
			</activity>
			<leg mode="bike" dep_time="08:00:00" trav_time="00:52:31">
				<route type="generic" start_link="1-2" end_link="3-4" trav_time="00:52:31" distance="13130.0"></route>
			</leg>
			<activity type="work" link="3-4" x="10100.0" y="0.0" end_time="17:30:00" >
			</activity>
			<leg mode="bike" dep_time="17:30:00" trav_time="00:52:31">
				<route type="generic" start_link="3-4" end_link="1-2" trav_time="00:52:31" distance="13130.0"></route>
			</leg>
			<activity type="home" link="1-2" x="0.0" y="0.0" >
			</activity>
		</plan>

		<plan score="50.87873939522729" selected="no">
			<activity type="home" link="1-2" x="0.0" y="0.0" end_time="08:00:00" >
			</activity>
			<leg mode="car" dep_time="08:00:00" trav_time="01:52:31">
				<route type="generic" start_link="1-2" end_link="3-4" trav_time="01:52:31" distance="13130.0"></route>
			</leg>
			<activity type="work" link="3-4" x="10100.0" y="0.0" end_time="17:30:00" >
			</activity>
			<leg mode="car" dep_time="17:30:00" trav_time="01:52:31">
				<route type="generic" start_link="3-4" end_link="1-2" trav_time="01:52:31" distance="13130.0"></route>
			</leg>
			<activity type="home" link="1-2" x="0.0" y="0.0" >
			</activity>
		</plan>

	</person>

<!-- ====================================================================== -->

	<person id="fred">
		<plan score="113.01188458431385" selected="yes">
			<activity type="home" link="1-2" x="0.0" y="0.0" end_time="08:00:00" >
			</activity>
			<leg mode="transit_walk" trav_time="00:01:18">
				<route type="generic" start_link="1-2" end_link="1-2" trav_time="00:01:18" distance="65.0"></route>
			</leg>
			<activity type="pt interaction" link="1-2" x="50.0" y="0.0" max_dur="00:00:00" >
			</activity>
			<leg mode="pt" trav_time="00:43:42">
				<route type="experimentalPt1" start_link="1-2" end_link="3-4" trav_time="00:43:42" distance="10100.0">PT1===home_stop_out===city_line===work_bound===work_stop_in</route>
			</leg>
			<activity type="pt interaction" link="3-4" x="10050.0" y="0.0" max_dur="00:00:00" >
			</activity>
			<leg mode="transit_walk" trav_time="00:01:18">
				<route type="generic" start_link="3-4" end_link="3-4" trav_time="00:01:18" distance="65.0"></route>
			</leg>
			<activity type="work" link="3-4" x="10100.0" y="0.0" end_time="17:30:00" >
			</activity>
			<leg mode="transit_walk" trav_time="00:01:18">
				<route type="generic" start_link="3-4" end_link="4-3" trav_time="00:01:18" distance="65.0"></route>
			</leg>
			<activity type="pt interaction" link="4-3" x="10050.0" y="0.0" max_dur="00:00:00" >
			</activity>
			<leg mode="pt" trav_time="00:13:42">
				<route type="experimentalPt1" start_link="4-3" end_link="2-1" trav_time="00:13:42" distance="10100.0">PT1===work_stop_out===city_line===home_bound===home_stop_in</route>
			</leg>
			<activity type="pt interaction" link="2-1" x="50.0" y="0.0" max_dur="00:00:00" >
			</activity>
			<leg mode="transit_walk" trav_time="00:01:18">
				<route type="generic" start_link="2-1" end_link="1-2" trav_time="00:01:18" distance="65.0"></route>
			</leg>
			<activity type="home" link="1-2" x="0.0" y="0.0" >
			</activity>
		</plan>

		<plan score="80.01188458431385" selected="no">
			<activity type="home" link="1-2" x="0.0" y="0.0" end_time="08:00:00" >
			</activity>
			<leg mode="transit_walk" trav_time="00:01:18">
				<route type="generic" start_link="1-2" end_link="1-2" trav_time="00:01:18" distance="65.0"></route>
			</leg>
			<activity type="pt interaction" link="1-2" x="50.0" y="0.0" max_dur="00:00:00" >
			</activity>
			<leg mode="pt" trav_time="00:43:42">
				<route type="experimentalPt1" start_link="1-2" end_link="3-4" trav_time="00:43:42" distance="10100.0">PT1===home_stop_out===city_line===work_bound===work_stop_in</route>
			</leg>
			<activity type="pt interaction" link="3-4" x="10050.0" y="0.0" max_dur="00:00:00" >
			</activity>
			<leg mode="transit_walk" trav_time="00:01:18">
				<route type="generic" start_link="3-4" end_link="3-4" trav_time="00:01:18" distance="65.0"></route>
			</leg>
			<activity type="work" link="3-4" x="10100.0" y="0.0" end_time="17:30:00" >
			</activity>
			<leg mode="transit_walk" trav_time="00:01:18">
				<route type="generic" start_link="3-4" end_link="4-3" trav_time="00:01:18" distance="65.0"></route>
			</leg>
			<activity type="pt interaction" link="4-3" x="10050.0" y="0.0" max_dur="00:00:00" >
			</activity>
			<leg mode="pt" trav_time="00:13:42">
				<route type="experimentalPt1" start_link="4-3" end_link="2-1" trav_time="00:13:42" distance="10100.0">PT1===work_stop_out===city_line===home_bound===home_stop_in</route>
			</leg>
			<activity type="pt interaction" link="2-1" x="50.0" y="0.0" max_dur="00:00:00" >
			</activity>
			<leg mode="transit_walk" trav_time="00:01:18">
				<route type="generic" start_link="2-1" end_link="1-2" trav_time="00:01:18" distance="65.0"></route>
			</leg>
			<activity type="home" link="1-2" x="0.0" y="0.0" >
			</activity>
		</plan>

	</person>

<!-- ====================================================================== -->

	<person id="gerry">
		<plan score="105.5293475373047" selected="yes">
			<activity type="home" link="1-2" x="0.0" y="0.0" end_time="07:00:00" >
			</activity>
			<leg mode="transit_walk" trav_time="00:01:18">
				<route type="generic" start_link="1-2" end_link="1-2" trav_time="00:01:18" distance="65.0"></route>
			</leg>
			<activity type="pt interaction" link="1-2" x="50.0" y="0.0" max_dur="00:00:00" >
			</activity>
			<leg mode="pt" trav_time="00:43:42">
				<route type="experimentalPt1" start_link="1-2" end_link="3-4" trav_time="00:43:42" distance="10100.0">PT1===home_stop_out===city_line===work_bound===work_stop_in</route>
			</leg>
			<activity type="pt interaction" link="3-4" x="10050.0" y="0.0" max_dur="00:00:00" >
			</activity>
			<leg mode="transit_walk" trav_time="00:01:18">
				<route type="generic" start_link="3-4" end_link="3-4" trav_time="00:01:18" distance="65.0"></route>
			</leg>
			<activity type="work" link="3-4" x="10100.0" y="0.0" end_time="16:30:00" >
			</activity>
			<leg mode="transit_walk" trav_time="00:01:18">
				<route type="generic" start_link="3-4" end_link="4-3" trav_time="00:01:18" distance="65.0"></route>
			</leg>
			<activity type="pt interaction" link="4-3" x="10050.0" y="0.0" max_dur="00:00:00" >
			</activity>
			<leg mode="pt" trav_time="01:13:42">
				<route type="experimentalPt1" start_link="4-3" end_link="2-1" trav_time="01:13:42" distance="10100.0">PT1===work_stop_out===city_line===home_bound===home_stop_in</route>
			</leg>
			<activity type="pt interaction" link="2-1" x="50.0" y="0.0" max_dur="00:00:00" >
			</activity>
			<leg mode="transit_walk" trav_time="00:01:18">
				<route type="generic" start_link="2-1" end_link="1-2" trav_time="00:01:18" distance="65.0"></route>
			</leg>
			<activity type="home" link="1-2" x="0.0" y="0.0" >
			</activity>
		</plan>

		<plan score="65.5293475373047" selected="no">
			<activity type="home" link="1-2" x="0.0" y="0.0" end_time="07:00:00" >
			</activity>
			<leg mode="transit_walk" trav_time="00:01:18">
				<route type="generic" start_link="1-2" end_link="1-2" trav_time="00:01:18" distance="65.0"></route>
			</leg>
			<activity type="pt interaction" link="1-2" x="50.0" y="0.0" max_dur="00:00:00" >
			</activity>
			<leg mode="pt" trav_time="00:43:42">
				<route type="experimentalPt1" start_link="1-2" end_link="3-4" trav_time="00:43:42" distance="10100.0">PT1===home_stop_out===city_line===work_bound===work_stop_in</route>
			</leg>
			<activity type="pt interaction" link="3-4" x="10050.0" y="0.0" max_dur="00:00:00" >
			</activity>
			<leg mode="transit_walk" trav_time="00:01:18">
				<route type="generic" start_link="3-4" end_link="3-4" trav_time="00:01:18" distance="65.0"></route>
			</leg>
			<activity type="work" link="3-4" x="10100.0" y="0.0" end_time="16:30:00" >
			</activity>
			<leg mode="transit_walk" trav_time="00:01:18">
				<route type="generic" start_link="3-4" end_link="4-3" trav_time="00:01:18" distance="65.0"></route>
			</leg>
			<activity type="pt interaction" link="4-3" x="10050.0" y="0.0" max_dur="00:00:00" >
			</activity>
			<leg mode="pt" trav_time="01:13:42">
				<route type="experimentalPt1" start_link="4-3" end_link="2-1" trav_time="01:13:42" distance="10100.0">PT1===work_stop_out===city_line===home_bound===home_stop_in</route>
			</leg>
			<activity type="pt interaction" link="2-1" x="50.0" y="0.0" max_dur="00:00:00" >
			</activity>
			<leg mode="transit_walk" trav_time="00:01:18">
				<route type="generic" start_link="2-1" end_link="1-2" trav_time="00:01:18" distance="65.0"></route>
			</leg>
			<activity type="home" link="1-2" x="0.0" y="0.0" >
			</activity>
		</plan>

	</person>

<!-- ====================================================================== -->

	<person id="nick">
		<plan score="129.592238766919" selected="yes">
			<activity type="home" link="1-2" x="0.0" y="0.0" end_time="08:00:00" >
			</activity>
			<leg mode="car" dep_time="08:00:00" trav_time="00:00:04">
				<route type="links" start_link="1-2" end_link="1-5" trav_time="00:00:04" distance="10100.0">1-2 2-1 1-5</route>
			</leg>
			<activity type="work" link="1-5" x="0.0" y="10000.0" end_time="17:30:00" >
			</activity>
			<leg mode="car" dep_time="17:30:00" trav_time="00:07:34">
				<route type="links" start_link="1-5" end_link="1-2" trav_time="00:07:34" distance="10100.0">1-5 5-1 1-2</route>
			</leg>
			<activity type="home" link="1-2" x="0.0" y="0.0" >
			</activity>
		</plan>

		<plan score="20.592238766919" selected="no">
			<activity type="home" link="1-2" x="0.0" y="0.0" end_time="08:00:00" >
			</activity>
			<leg mode="walk" dep_time="08:00:00" trav_time="00:00:04">
				<route type="links" start_link="1-2" end_link="1-5" trav_time="00:00:04" distance="10100.0">1-2 2-1 1-5</route>
			</leg>
			<activity type="work" link="1-5" x="0.0" y="10000.0" end_time="17:30:00" >
			</activity>
			<leg mode="walk" dep_time="17:30:00" trav_time="00:07:34">
				<route type="links" start_link="1-5" end_link="1-2" trav_time="00:07:34" distance="10100.0">1-5 5-1 1-2</route>
			</leg>
			<activity type="home" link="1-2" x="0.0" y="0.0" >
			</activity>
		</plan>

	</person>

<!-- ====================================================================== -->

</population>