<?xml version="1.0" encoding="UTF-8"?>
<!DOCTYPE facilities SYSTEM "http://www.matsim.org/files/dtd/facilities_v1.dtd">
<facilities>

<!-- ====================================================================== -->

</facilities>
