<?xml version="1.0" encoding="UTF-8"?>

<vehicleDefinitions xmlns="http://www.matsim.org/files/dtd" xmlns:xsi="http://www.w3.org/2001/XMLSchema-instance" xsi:schemaLocation="http://www.matsim.org/files/dtd http://www.matsim.org/files/dtd/vehicleDefinitions_v1.0.xsd">
	<vehicleType id="Rail">
		<capacity>
			<seats persons="400"/>
			<standingRoom persons="0"/>
		</capacity>
		<length meter="200.0"/>
		<width meter="2.8"/>
		<accessTime secondsPerPerson="0.25"/>
		<egressTime secondsPerPerson="0.25"/>
		<doorOperation mode="serial"/>
		<passengerCarEquivalents pce="27.1"/>
	</vehicleType>
	<vehicleType id="Bus">
		<capacity>
			<seats persons="70"/>
			<standingRoom persons="0"/>
		</capacity>
		<length meter="18.0"/>
		<width meter="2.5"/>
		<accessTime secondsPerPerson="0.5"/>
		<egressTime secondsPerPerson="0.5"/>
		<doorOperation mode="serial"/>
		<passengerCarEquivalents pce="2.8"/>
	</vehicleType>
	<vehicleType id="Suburban Railway">
		<capacity>
			<seats persons="400"/>
			<standingRoom persons="0"/>
		</capacity>
		<length meter="200.0"/>
		<width meter="2.8"/>
		<accessTime secondsPerPerson="0.25"/>
		<egressTime secondsPerPerson="0.25"/>
		<doorOperation mode="serial"/>
		<passengerCarEquivalents pce="27.1"/>
	</vehicleType>
	<vehicle id="veh_0_rail" type="Rail"/>
	<vehicle id="veh_1_rail" type="Rail"/>
	<vehicle id="veh_2_rail" type="Rail"/>
	<vehicle id="veh_3_rail" type="Rail"/>
	<vehicle id="veh_4_rail" type="Rail"/>
	<vehicle id="veh_5_rail" type="Rail"/>
	<vehicle id="veh_6_rail" type="Rail"/>
	<vehicle id="veh_7_rail" type="Rail"/>
	<vehicle id="veh_8_rail" type="Rail"/>
	<vehicle id="veh_9_rail" type="Rail"/>
	<vehicle id="veh_10_rail" type="Rail"/>
	<vehicle id="veh_11_rail" type="Rail"/>
	<vehicle id="veh_12_rail" type="Rail"/>
	<vehicle id="veh_13_rail" type="Rail"/>
	<vehicle id="veh_14_rail" type="Rail"/>
	<vehicle id="veh_15_rail" type="Rail"/>
	<vehicle id="veh_16_rail" type="Rail"/>
	<vehicle id="veh_17_rail" type="Rail"/>
	<vehicle id="veh_18_rail" type="Rail"/>
	<vehicle id="veh_19_rail" type="Rail"/>
	<vehicle id="veh_20_rail" type="Rail"/>
	<vehicle id="veh_21_rail" type="Rail"/>
	<vehicle id="veh_22_rail" type="Rail"/>
	<vehicle id="veh_23_rail" type="Rail"/>
	<vehicle id="veh_24_rail" type="Rail"/>
	<vehicle id="veh_25_rail" type="Rail"/>
	<vehicle id="veh_26_rail" type="Rail"/>
	<vehicle id="veh_27_rail" type="Rail"/>
	<vehicle id="veh_28_rail" type="Rail"/>
	<vehicle id="veh_29_rail" type="Rail"/>
	<vehicle id="veh_30_rail" type="Rail"/>
	<vehicle id="veh_31_rail" type="Rail"/>
	<vehicle id="veh_32_rail" type="Rail"/>
	<vehicle id="veh_33_rail" type="Rail"/>
	<vehicle id="veh_34_rail" type="Rail"/>
	<vehicle id="veh_35_rail" type="Rail"/>
	<vehicle id="veh_36_rail" type="Rail"/>
	<vehicle id="veh_37_rail" type="Rail"/>
	<vehicle id="veh_38_rail" type="Rail"/>
	<vehicle id="veh_39_rail" type="Rail"/>
	<vehicle id="veh_40_rail" type="Rail"/>
	<vehicle id="veh_41_rail" type="Rail"/>
	<vehicle id="veh_42_rail" type="Rail"/>
	<vehicle id="veh_43_rail" type="Rail"/>
	<vehicle id="veh_44_rail" type="Rail"/>
	<vehicle id="veh_45_rail" type="Rail"/>
	<vehicle id="veh_46_rail" type="Rail"/>
	<vehicle id="veh_47_rail" type="Rail"/>
	<vehicle id="veh_48_rail" type="Rail"/>
	<vehicle id="veh_49_rail" type="Rail"/>
	<vehicle id="veh_50_rail" type="Rail"/>
	<vehicle id="veh_51_rail" type="Rail"/>
	<vehicle id="veh_52_rail" type="Rail"/>
	<vehicle id="veh_53_rail" type="Rail"/>
	<vehicle id="veh_54_rail" type="Rail"/>
	<vehicle id="veh_55_rail" type="Rail"/>
	<vehicle id="veh_56_rail" type="Rail"/>
	<vehicle id="veh_57_rail" type="Rail"/>
	<vehicle id="veh_58_rail" type="Rail"/>
	<vehicle id="veh_59_rail" type="Rail"/>
	<vehicle id="veh_60_rail" type="Rail"/>
	<vehicle id="veh_61_rail" type="Rail"/>
	<vehicle id="veh_62_rail" type="Rail"/>
	<vehicle id="veh_63_rail" type="Rail"/>
	<vehicle id="veh_64_rail" type="Rail"/>
	<vehicle id="veh_65_rail" type="Rail"/>
	<vehicle id="veh_66_rail" type="Rail"/>
	<vehicle id="veh_67_rail" type="Rail"/>
	<vehicle id="veh_68_rail" type="Rail"/>
	<vehicle id="veh_69_rail" type="Rail"/>
	<vehicle id="veh_70_rail" type="Rail"/>
	<vehicle id="veh_71_rail" type="Rail"/>
	<vehicle id="veh_72_rail" type="Rail"/>
	<vehicle id="veh_73_rail" type="Rail"/>
	<vehicle id="veh_74_rail" type="Rail"/>
	<vehicle id="veh_75_rail" type="Rail"/>
	<vehicle id="veh_76_rail" type="Rail"/>
	<vehicle id="veh_77_rail" type="Rail"/>
	<vehicle id="veh_78_rail" type="Rail"/>
	<vehicle id="veh_79_rail" type="Rail"/>
	<vehicle id="veh_80_rail" type="Rail"/>
	<vehicle id="veh_81_rail" type="Rail"/>
	<vehicle id="veh_82_rail" type="Rail"/>
	<vehicle id="veh_83_rail" type="Rail"/>
	<vehicle id="veh_84_rail" type="Rail"/>
	<vehicle id="veh_85_rail" type="Rail"/>
	<vehicle id="veh_86_rail" type="Rail"/>
	<vehicle id="veh_87_rail" type="Rail"/>
	<vehicle id="veh_88_rail" type="Rail"/>
	<vehicle id="veh_89_rail" type="Rail"/>
	<vehicle id="veh_90_rail" type="Rail"/>
	<vehicle id="veh_91_rail" type="Rail"/>
	<vehicle id="veh_92_rail" type="Rail"/>
	<vehicle id="veh_93_rail" type="Rail"/>
	<vehicle id="veh_94_rail" type="Rail"/>
	<vehicle id="veh_95_rail" type="Rail"/>
	<vehicle id="veh_96_rail" type="Rail"/>
	<vehicle id="veh_97_rail" type="Rail"/>
	<vehicle id="veh_98_rail" type="Rail"/>
	<vehicle id="veh_99_rail" type="Rail"/>
	<vehicle id="veh_100_rail" type="Rail"/>
	<vehicle id="veh_101_rail" type="Rail"/>
	<vehicle id="veh_102_rail" type="Rail"/>
	<vehicle id="veh_103_rail" type="Rail"/>
	<vehicle id="veh_104_rail" type="Rail"/>
	<vehicle id="veh_105_rail" type="Rail"/>
	<vehicle id="veh_106_rail" type="Rail"/>
	<vehicle id="veh_107_rail" type="Rail"/>
	<vehicle id="veh_108_rail" type="Rail"/>
	<vehicle id="veh_109_rail" type="Rail"/>
	<vehicle id="veh_110_rail" type="Rail"/>
	<vehicle id="veh_111_rail" type="Rail"/>
	<vehicle id="veh_112_rail" type="Rail"/>
	<vehicle id="veh_113_rail" type="Rail"/>
	<vehicle id="veh_114_rail" type="Rail"/>
	<vehicle id="veh_115_rail" type="Rail"/>
	<vehicle id="veh_116_rail" type="Rail"/>
	<vehicle id="veh_117_rail" type="Rail"/>
	<vehicle id="veh_118_rail" type="Rail"/>
	<vehicle id="veh_119_rail" type="Rail"/>
	<vehicle id="veh_120_rail" type="Rail"/>
	<vehicle id="veh_121_rail" type="Rail"/>
	<vehicle id="veh_122_rail" type="Rail"/>
	<vehicle id="veh_123_rail" type="Rail"/>
	<vehicle id="veh_124_rail" type="Rail"/>
	<vehicle id="veh_125_rail" type="Rail"/>
	<vehicle id="veh_126_rail" type="Rail"/>
	<vehicle id="veh_127_rail" type="Rail"/>
	<vehicle id="veh_128_rail" type="Rail"/>
	<vehicle id="veh_129_rail" type="Rail"/>
	<vehicle id="veh_130_rail" type="Rail"/>
	<vehicle id="veh_131_rail" type="Rail"/>
	<vehicle id="veh_132_rail" type="Rail"/>
	<vehicle id="veh_133_rail" type="Rail"/>
	<vehicle id="veh_134_rail" type="Rail"/>
	<vehicle id="veh_135_rail" type="Rail"/>
	<vehicle id="veh_136_rail" type="Rail"/>
	<vehicle id="veh_137_rail" type="Rail"/>
	<vehicle id="veh_138_rail" type="Rail"/>
	<vehicle id="veh_139_rail" type="Rail"/>
	<vehicle id="veh_140_rail" type="Rail"/>
	<vehicle id="veh_141_rail" type="Rail"/>
	<vehicle id="veh_142_rail" type="Rail"/>
	<vehicle id="veh_143_rail" type="Rail"/>
	<vehicle id="veh_144_rail" type="Rail"/>
	<vehicle id="veh_145_rail" type="Rail"/>
	<vehicle id="veh_146_rail" type="Rail"/>
	<vehicle id="veh_147_rail" type="Rail"/>
	<vehicle id="veh_148_rail" type="Rail"/>
	<vehicle id="veh_149_rail" type="Rail"/>
	<vehicle id="veh_150_rail" type="Rail"/>
	<vehicle id="veh_151_rail" type="Rail"/>
	<vehicle id="veh_152_rail" type="Rail"/>
	<vehicle id="veh_153_rail" type="Rail"/>
	<vehicle id="veh_154_rail" type="Rail"/>
	<vehicle id="veh_155_rail" type="Rail"/>
	<vehicle id="veh_156_rail" type="Rail"/>
	<vehicle id="veh_157_rail" type="Rail"/>
	<vehicle id="veh_158_rail" type="Rail"/>
	<vehicle id="veh_159_rail" type="Rail"/>
	<vehicle id="veh_160_rail" type="Rail"/>
	<vehicle id="veh_161_rail" type="Rail"/>
	<vehicle id="veh_162_rail" type="Rail"/>
	<vehicle id="veh_163_rail" type="Rail"/>
	<vehicle id="veh_164_rail" type="Rail"/>
	<vehicle id="veh_165_rail" type="Rail"/>
	<vehicle id="veh_166_rail" type="Rail"/>
	<vehicle id="veh_167_rail" type="Rail"/>
	<vehicle id="veh_168_rail" type="Rail"/>
	<vehicle id="veh_169_rail" type="Rail"/>
	<vehicle id="veh_170_rail" type="Rail"/>
	<vehicle id="veh_171_rail" type="Rail"/>
	<vehicle id="veh_172_rail" type="Rail"/>
	<vehicle id="veh_173_rail" type="Rail"/>
	<vehicle id="veh_174_rail" type="Rail"/>
	<vehicle id="veh_175_rail" type="Rail"/>
	<vehicle id="veh_176_rail" type="Rail"/>
	<vehicle id="veh_177_rail" type="Rail"/>
	<vehicle id="veh_178_rail" type="Rail"/>
	<vehicle id="veh_179_rail" type="Rail"/>
	<vehicle id="veh_180_rail" type="Rail"/>
	<vehicle id="veh_181_rail" type="Rail"/>
	<vehicle id="veh_182_rail" type="Rail"/>
	<vehicle id="veh_183_rail" type="Rail"/>
	<vehicle id="veh_184_rail" type="Rail"/>
	<vehicle id="veh_185_rail" type="Rail"/>
	<vehicle id="veh_186_rail" type="Rail"/>
	<vehicle id="veh_187_rail" type="Rail"/>
	<vehicle id="veh_188_rail" type="Rail"/>
	<vehicle id="veh_189_rail" type="Rail"/>
	<vehicle id="veh_190_rail" type="Rail"/>
	<vehicle id="veh_191_rail" type="Rail"/>
	<vehicle id="veh_192_rail" type="Rail"/>
	<vehicle id="veh_193_rail" type="Rail"/>
	<vehicle id="veh_194_rail" type="Rail"/>
	<vehicle id="veh_195_rail" type="Rail"/>
	<vehicle id="veh_196_rail" type="Rail"/>
	<vehicle id="veh_197_rail" type="Rail"/>
	<vehicle id="veh_198_rail" type="Rail"/>
	<vehicle id="veh_199_rail" type="Rail"/>
	<vehicle id="veh_200_rail" type="Rail"/>
	<vehicle id="veh_201_rail" type="Rail"/>
	<vehicle id="veh_202_rail" type="Rail"/>
	<vehicle id="veh_203_rail" type="Rail"/>
	<vehicle id="veh_204_rail" type="Rail"/>
	<vehicle id="veh_205_rail" type="Rail"/>
	<vehicle id="veh_206_bus" type="Bus"/>
	<vehicle id="veh_207_rail" type="Rail"/>
	<vehicle id="veh_208_rail" type="Rail"/>
	<vehicle id="veh_209_rail" type="Rail"/>
	<vehicle id="veh_210_rail" type="Rail"/>
	<vehicle id="veh_211_rail" type="Rail"/>
	<vehicle id="veh_212_rail" type="Rail"/>
	<vehicle id="veh_213_rail" type="Rail"/>
	<vehicle id="veh_214_rail" type="Rail"/>
	<vehicle id="veh_215_rail" type="Rail"/>
	<vehicle id="veh_216_rail" type="Rail"/>
	<vehicle id="veh_217_rail" type="Rail"/>
	<vehicle id="veh_218_rail" type="Rail"/>
	<vehicle id="veh_219_rail" type="Rail"/>
	<vehicle id="veh_220_rail" type="Rail"/>
	<vehicle id="veh_221_rail" type="Rail"/>
	<vehicle id="veh_222_rail" type="Rail"/>
	<vehicle id="veh_223_rail" type="Rail"/>
	<vehicle id="veh_224_rail" type="Rail"/>
	<vehicle id="veh_225_rail" type="Rail"/>
	<vehicle id="veh_226_rail" type="Rail"/>
	<vehicle id="veh_227_rail" type="Rail"/>
	<vehicle id="veh_228_rail" type="Rail"/>
	<vehicle id="veh_229_rail" type="Rail"/>
	<vehicle id="veh_230_rail" type="Rail"/>
	<vehicle id="veh_231_rail" type="Rail"/>
	<vehicle id="veh_232_rail" type="Rail"/>
	<vehicle id="veh_233_rail" type="Rail"/>
	<vehicle id="veh_234_rail" type="Rail"/>
	<vehicle id="veh_235_rail" type="Rail"/>
	<vehicle id="veh_236_rail" type="Rail"/>
	<vehicle id="veh_237_rail" type="Rail"/>
	<vehicle id="veh_238_rail" type="Rail"/>
	<vehicle id="veh_239_rail" type="Rail"/>
	<vehicle id="veh_240_rail" type="Rail"/>
	<vehicle id="veh_241_rail" type="Rail"/>
	<vehicle id="veh_242_rail" type="Rail"/>
	<vehicle id="veh_243_rail" type="Rail"/>
	<vehicle id="veh_244_rail" type="Rail"/>
	<vehicle id="veh_245_rail" type="Rail"/>
	<vehicle id="veh_246_rail" type="Rail"/>
	<vehicle id="veh_247_rail" type="Rail"/>
	<vehicle id="veh_248_rail" type="Rail"/>
	<vehicle id="veh_249_rail" type="Rail"/>
	<vehicle id="veh_250_rail" type="Rail"/>
	<vehicle id="veh_251_rail" type="Rail"/>
	<vehicle id="veh_252_rail" type="Rail"/>
	<vehicle id="veh_253_rail" type="Rail"/>
	<vehicle id="veh_254_rail" type="Rail"/>
	<vehicle id="veh_255_rail" type="Rail"/>
	<vehicle id="veh_256_rail" type="Rail"/>
	<vehicle id="veh_257_rail" type="Rail"/>
	<vehicle id="veh_258_rail" type="Rail"/>
	<vehicle id="veh_259_rail" type="Rail"/>
	<vehicle id="veh_260_rail" type="Rail"/>
	<vehicle id="veh_261_rail" type="Rail"/>
	<vehicle id="veh_262_rail" type="Rail"/>
	<vehicle id="veh_263_rail" type="Rail"/>
	<vehicle id="veh_264_rail" type="Rail"/>
	<vehicle id="veh_265_rail" type="Rail"/>
	<vehicle id="veh_266_rail" type="Rail"/>
	<vehicle id="veh_267_rail" type="Rail"/>
	<vehicle id="veh_268_rail" type="Rail"/>
	<vehicle id="veh_269_rail" type="Rail"/>
	<vehicle id="veh_270_rail" type="Rail"/>
	<vehicle id="veh_271_rail" type="Rail"/>
	<vehicle id="veh_272_rail" type="Rail"/>
	<vehicle id="veh_273_rail" type="Rail"/>
	<vehicle id="veh_274_rail" type="Rail"/>
	<vehicle id="veh_275_rail" type="Rail"/>
	<vehicle id="veh_276_rail" type="Rail"/>
	<vehicle id="veh_277_rail" type="Rail"/>
	<vehicle id="veh_278_rail" type="Rail"/>
	<vehicle id="veh_279_rail" type="Rail"/>
	<vehicle id="veh_280_rail" type="Rail"/>
	<vehicle id="veh_281_rail" type="Rail"/>
	<vehicle id="veh_282_rail" type="Rail"/>
	<vehicle id="veh_283_rail" type="Rail"/>
	<vehicle id="veh_284_rail" type="Rail"/>
	<vehicle id="veh_285_rail" type="Rail"/>
	<vehicle id="veh_286_rail" type="Rail"/>
	<vehicle id="veh_287_rail" type="Rail"/>
	<vehicle id="veh_288_rail" type="Rail"/>
	<vehicle id="veh_289_rail" type="Rail"/>
	<vehicle id="veh_290_rail" type="Rail"/>
	<vehicle id="veh_291_rail" type="Rail"/>
	<vehicle id="veh_292_rail" type="Rail"/>
	<vehicle id="veh_293_rail" type="Rail"/>
	<vehicle id="veh_294_rail" type="Rail"/>
	<vehicle id="veh_295_rail" type="Rail"/>
	<vehicle id="veh_296_rail" type="Rail"/>
	<vehicle id="veh_297_rail" type="Rail"/>
	<vehicle id="veh_298_rail" type="Rail"/>
	<vehicle id="veh_299_rail" type="Rail"/>
	<vehicle id="veh_300_rail" type="Rail"/>
	<vehicle id="veh_301_rail" type="Rail"/>
	<vehicle id="veh_302_rail" type="Rail"/>
	<vehicle id="veh_303_rail" type="Rail"/>
	<vehicle id="veh_304_rail" type="Rail"/>
	<vehicle id="veh_305_rail" type="Rail"/>
	<vehicle id="veh_306_rail" type="Rail"/>
	<vehicle id="veh_307_rail" type="Rail"/>
	<vehicle id="veh_308_rail" type="Rail"/>
	<vehicle id="veh_309_rail" type="Rail"/>
	<vehicle id="veh_310_rail" type="Rail"/>
	<vehicle id="veh_311_rail" type="Rail"/>
	<vehicle id="veh_312_rail" type="Rail"/>
	<vehicle id="veh_313_rail" type="Rail"/>
	<vehicle id="veh_314_rail" type="Rail"/>
	<vehicle id="veh_315_rail" type="Rail"/>
	<vehicle id="veh_316_rail" type="Rail"/>
	<vehicle id="veh_317_rail" type="Rail"/>
	<vehicle id="veh_318_rail" type="Rail"/>
	<vehicle id="veh_319_rail" type="Rail"/>
	<vehicle id="veh_320_rail" type="Rail"/>
	<vehicle id="veh_321_rail" type="Rail"/>
	<vehicle id="veh_322_rail" type="Rail"/>
	<vehicle id="veh_323_rail" type="Rail"/>
	<vehicle id="veh_324_rail" type="Rail"/>
	<vehicle id="veh_325_rail" type="Rail"/>
	<vehicle id="veh_326_rail" type="Rail"/>
	<vehicle id="veh_327_rail" type="Rail"/>
	<vehicle id="veh_328_rail" type="Rail"/>
	<vehicle id="veh_329_rail" type="Rail"/>
	<vehicle id="veh_330_rail" type="Rail"/>
	<vehicle id="veh_331_rail" type="Rail"/>
	<vehicle id="veh_332_rail" type="Rail"/>
	<vehicle id="veh_333_rail" type="Rail"/>
	<vehicle id="veh_334_rail" type="Rail"/>
	<vehicle id="veh_335_rail" type="Rail"/>
	<vehicle id="veh_336_rail" type="Rail"/>
	<vehicle id="veh_337_rail" type="Rail"/>
	<vehicle id="veh_338_rail" type="Rail"/>
	<vehicle id="veh_339_rail" type="Rail"/>
	<vehicle id="veh_340_rail" type="Rail"/>
	<vehicle id="veh_341_rail" type="Rail"/>
	<vehicle id="veh_342_rail" type="Rail"/>
	<vehicle id="veh_343_rail" type="Rail"/>
	<vehicle id="veh_344_rail" type="Rail"/>
	<vehicle id="veh_345_rail" type="Rail"/>
	<vehicle id="veh_346_rail" type="Rail"/>
	<vehicle id="veh_347_rail" type="Rail"/>
	<vehicle id="veh_348_rail" type="Rail"/>
	<vehicle id="veh_349_rail" type="Rail"/>
	<vehicle id="veh_350_rail" type="Rail"/>
	<vehicle id="veh_351_rail" type="Rail"/>
	<vehicle id="veh_352_rail" type="Rail"/>
	<vehicle id="veh_353_rail" type="Rail"/>
	<vehicle id="veh_354_rail" type="Rail"/>
	<vehicle id="veh_355_rail" type="Rail"/>
	<vehicle id="veh_356_rail" type="Rail"/>
	<vehicle id="veh_357_rail" type="Rail"/>
	<vehicle id="veh_358_rail" type="Rail"/>
	<vehicle id="veh_359_rail" type="Rail"/>
	<vehicle id="veh_360_rail" type="Rail"/>
	<vehicle id="veh_361_rail" type="Rail"/>
	<vehicle id="veh_362_rail" type="Rail"/>
	<vehicle id="veh_363_rail" type="Rail"/>
	<vehicle id="veh_364_rail" type="Rail"/>
	<vehicle id="veh_365_rail" type="Rail"/>
	<vehicle id="veh_366_rail" type="Rail"/>
	<vehicle id="veh_367_rail" type="Rail"/>
	<vehicle id="veh_368_rail" type="Rail"/>
	<vehicle id="veh_369_rail" type="Rail"/>
	<vehicle id="veh_370_rail" type="Rail"/>
	<vehicle id="veh_371_rail" type="Rail"/>
	<vehicle id="veh_372_rail" type="Rail"/>
	<vehicle id="veh_373_rail" type="Rail"/>
	<vehicle id="veh_374_rail" type="Rail"/>
	<vehicle id="veh_375_rail" type="Rail"/>
	<vehicle id="veh_376_rail" type="Rail"/>
	<vehicle id="veh_377_rail" type="Rail"/>
	<vehicle id="veh_378_rail" type="Rail"/>
	<vehicle id="veh_379_rail" type="Rail"/>
	<vehicle id="veh_380_rail" type="Rail"/>
	<vehicle id="veh_381_rail" type="Rail"/>
	<vehicle id="veh_382_rail" type="Rail"/>
	<vehicle id="veh_383_rail" type="Rail"/>
	<vehicle id="veh_384_rail" type="Rail"/>
	<vehicle id="veh_385_rail" type="Rail"/>
	<vehicle id="veh_386_rail" type="Rail"/>
	<vehicle id="veh_387_rail" type="Rail"/>
	<vehicle id="veh_388_rail" type="Rail"/>
	<vehicle id="veh_389_rail" type="Rail"/>
	<vehicle id="veh_390_rail" type="Rail"/>
	<vehicle id="veh_391_rail" type="Rail"/>
	<vehicle id="veh_392_rail" type="Rail"/>
	<vehicle id="veh_393_rail" type="Rail"/>
	<vehicle id="veh_394_rail" type="Rail"/>
	<vehicle id="veh_395_rail" type="Rail"/>
	<vehicle id="veh_396_rail" type="Rail"/>
	<vehicle id="veh_397_rail" type="Rail"/>
	<vehicle id="veh_398_rail" type="Rail"/>
	<vehicle id="veh_399_rail" type="Rail"/>
	<vehicle id="veh_400_rail" type="Rail"/>
	<vehicle id="veh_401_rail" type="Rail"/>
	<vehicle id="veh_402_rail" type="Rail"/>
	<vehicle id="veh_403_rail" type="Rail"/>
	<vehicle id="veh_404_rail" type="Rail"/>
	<vehicle id="veh_405_rail" type="Rail"/>
	<vehicle id="veh_406_rail" type="Rail"/>
	<vehicle id="veh_407_rail" type="Rail"/>
	<vehicle id="veh_408_rail" type="Rail"/>
	<vehicle id="veh_409_rail" type="Rail"/>
	<vehicle id="veh_410_rail" type="Rail"/>
	<vehicle id="veh_411_rail" type="Rail"/>
	<vehicle id="veh_412_rail" type="Rail"/>
	<vehicle id="veh_413_rail" type="Rail"/>
	<vehicle id="veh_414_rail" type="Rail"/>
	<vehicle id="veh_415_rail" type="Rail"/>
	<vehicle id="veh_416_rail" type="Rail"/>
	<vehicle id="veh_417_rail" type="Rail"/>
	<vehicle id="veh_418_rail" type="Rail"/>
	<vehicle id="veh_419_rail" type="Rail"/>
	<vehicle id="veh_420_rail" type="Rail"/>
	<vehicle id="veh_421_rail" type="Rail"/>
	<vehicle id="veh_422_rail" type="Rail"/>
	<vehicle id="veh_423_rail" type="Rail"/>
	<vehicle id="veh_424_rail" type="Rail"/>
	<vehicle id="veh_425_rail" type="Rail"/>
	<vehicle id="veh_426_rail" type="Rail"/>
	<vehicle id="veh_427_rail" type="Rail"/>
	<vehicle id="veh_428_rail" type="Rail"/>
	<vehicle id="veh_429_rail" type="Rail"/>
	<vehicle id="veh_430_rail" type="Rail"/>
	<vehicle id="veh_431_rail" type="Rail"/>
	<vehicle id="veh_432_rail" type="Rail"/>
	<vehicle id="veh_433_rail" type="Rail"/>
	<vehicle id="veh_434_rail" type="Rail"/>
	<vehicle id="veh_435_rail" type="Rail"/>
	<vehicle id="veh_436_rail" type="Rail"/>
	<vehicle id="veh_437_rail" type="Rail"/>
	<vehicle id="veh_438_rail" type="Rail"/>
	<vehicle id="veh_439_rail" type="Rail"/>
	<vehicle id="veh_440_rail" type="Rail"/>
	<vehicle id="veh_441_rail" type="Rail"/>
	<vehicle id="veh_442_rail" type="Rail"/>
	<vehicle id="veh_443_rail" type="Rail"/>
	<vehicle id="veh_444_rail" type="Rail"/>
	<vehicle id="veh_445_rail" type="Rail"/>
	<vehicle id="veh_446_rail" type="Rail"/>
	<vehicle id="veh_447_rail" type="Rail"/>
	<vehicle id="veh_448_rail" type="Rail"/>
	<vehicle id="veh_449_rail" type="Rail"/>
	<vehicle id="veh_450_rail" type="Rail"/>
	<vehicle id="veh_451_rail" type="Rail"/>
	<vehicle id="veh_452_rail" type="Rail"/>
	<vehicle id="veh_453_rail" type="Rail"/>
	<vehicle id="veh_454_rail" type="Rail"/>
	<vehicle id="veh_455_rail" type="Rail"/>
	<vehicle id="veh_456_rail" type="Rail"/>
	<vehicle id="veh_457_rail" type="Rail"/>
	<vehicle id="veh_458_rail" type="Rail"/>
	<vehicle id="veh_459_rail" type="Rail"/>
	<vehicle id="veh_460_rail" type="Rail"/>
	<vehicle id="veh_461_rail" type="Rail"/>
	<vehicle id="veh_462_rail" type="Rail"/>
	<vehicle id="veh_463_rail" type="Rail"/>
	<vehicle id="veh_464_rail" type="Rail"/>
	<vehicle id="veh_465_rail" type="Rail"/>
	<vehicle id="veh_466_rail" type="Rail"/>
	<vehicle id="veh_467_rail" type="Rail"/>
	<vehicle id="veh_468_rail" type="Rail"/>
	<vehicle id="veh_469_rail" type="Rail"/>
	<vehicle id="veh_470_rail" type="Rail"/>
	<vehicle id="veh_471_rail" type="Rail"/>
	<vehicle id="veh_472_rail" type="Rail"/>
	<vehicle id="veh_473_rail" type="Rail"/>
	<vehicle id="veh_474_rail" type="Rail"/>
	<vehicle id="veh_475_rail" type="Rail"/>
	<vehicle id="veh_476_rail" type="Rail"/>
	<vehicle id="veh_477_rail" type="Rail"/>
	<vehicle id="veh_478_rail" type="Rail"/>
	<vehicle id="veh_479_rail" type="Rail"/>
	<vehicle id="veh_480_rail" type="Rail"/>
	<vehicle id="veh_481_rail" type="Rail"/>
	<vehicle id="veh_482_rail" type="Rail"/>
	<vehicle id="veh_483_rail" type="Rail"/>
	<vehicle id="veh_484_rail" type="Rail"/>
	<vehicle id="veh_485_rail" type="Rail"/>
	<vehicle id="veh_486_rail" type="Rail"/>
	<vehicle id="veh_487_rail" type="Rail"/>
	<vehicle id="veh_488_rail" type="Rail"/>
	<vehicle id="veh_489_rail" type="Rail"/>
	<vehicle id="veh_490_rail" type="Rail"/>
	<vehicle id="veh_491_rail" type="Rail"/>
	<vehicle id="veh_492_rail" type="Rail"/>
	<vehicle id="veh_493_rail" type="Rail"/>
	<vehicle id="veh_494_rail" type="Rail"/>
	<vehicle id="veh_495_rail" type="Rail"/>
	<vehicle id="veh_496_rail" type="Rail"/>
	<vehicle id="veh_497_rail" type="Rail"/>
	<vehicle id="veh_498_rail" type="Rail"/>
	<vehicle id="veh_499_rail" type="Rail"/>
	<vehicle id="veh_500_rail" type="Rail"/>
	<vehicle id="veh_501_rail" type="Rail"/>
	<vehicle id="veh_502_rail" type="Rail"/>
	<vehicle id="veh_503_rail" type="Rail"/>
	<vehicle id="veh_504_rail" type="Rail"/>
	<vehicle id="veh_505_rail" type="Rail"/>
	<vehicle id="veh_506_rail" type="Rail"/>
	<vehicle id="veh_507_rail" type="Rail"/>
	<vehicle id="veh_508_rail" type="Rail"/>
	<vehicle id="veh_509_rail" type="Rail"/>
	<vehicle id="veh_510_rail" type="Rail"/>
	<vehicle id="veh_511_rail" type="Rail"/>
	<vehicle id="veh_512_rail" type="Rail"/>
	<vehicle id="veh_513_rail" type="Rail"/>
	<vehicle id="veh_514_rail" type="Rail"/>
	<vehicle id="veh_515_rail" type="Rail"/>
	<vehicle id="veh_516_rail" type="Rail"/>
	<vehicle id="veh_517_rail" type="Rail"/>
	<vehicle id="veh_518_rail" type="Rail"/>
	<vehicle id="veh_519_rail" type="Rail"/>
	<vehicle id="veh_520_rail" type="Rail"/>
	<vehicle id="veh_521_rail" type="Rail"/>
	<vehicle id="veh_522_rail" type="Rail"/>
	<vehicle id="veh_523_rail" type="Rail"/>
	<vehicle id="veh_524_rail" type="Rail"/>
	<vehicle id="veh_525_rail" type="Rail"/>
	<vehicle id="veh_526_rail" type="Rail"/>
	<vehicle id="veh_527_rail" type="Rail"/>
	<vehicle id="veh_528_rail" type="Rail"/>
	<vehicle id="veh_529_rail" type="Rail"/>
	<vehicle id="veh_530_rail" type="Rail"/>
	<vehicle id="veh_531_rail" type="Rail"/>
	<vehicle id="veh_532_rail" type="Rail"/>
	<vehicle id="veh_533_rail" type="Rail"/>
	<vehicle id="veh_534_rail" type="Rail"/>
	<vehicle id="veh_535_rail" type="Rail"/>
	<vehicle id="veh_536_rail" type="Rail"/>
	<vehicle id="veh_537_rail" type="Rail"/>
	<vehicle id="veh_538_rail" type="Rail"/>
	<vehicle id="veh_539_rail" type="Rail"/>
	<vehicle id="veh_540_rail" type="Rail"/>
	<vehicle id="veh_541_rail" type="Rail"/>
	<vehicle id="veh_542_rail" type="Rail"/>
	<vehicle id="veh_543_rail" type="Rail"/>
	<vehicle id="veh_544_rail" type="Rail"/>
	<vehicle id="veh_545_rail" type="Rail"/>
	<vehicle id="veh_546_rail" type="Rail"/>
	<vehicle id="veh_547_rail" type="Rail"/>
	<vehicle id="veh_548_rail" type="Rail"/>
	<vehicle id="veh_549_rail" type="Rail"/>
	<vehicle id="veh_550_rail" type="Rail"/>
	<vehicle id="veh_551_rail" type="Rail"/>
	<vehicle id="veh_552_rail" type="Rail"/>
	<vehicle id="veh_553_rail" type="Rail"/>
	<vehicle id="veh_554_rail" type="Rail"/>
	<vehicle id="veh_555_rail" type="Rail"/>
	<vehicle id="veh_556_rail" type="Rail"/>
	<vehicle id="veh_557_rail" type="Rail"/>
	<vehicle id="veh_558_rail" type="Rail"/>
	<vehicle id="veh_559_rail" type="Rail"/>
	<vehicle id="veh_560_rail" type="Rail"/>
	<vehicle id="veh_561_rail" type="Rail"/>
	<vehicle id="veh_562_rail" type="Rail"/>
	<vehicle id="veh_563_rail" type="Rail"/>
	<vehicle id="veh_564_rail" type="Rail"/>
	<vehicle id="veh_565_rail" type="Rail"/>
	<vehicle id="veh_566_rail" type="Rail"/>
	<vehicle id="veh_567_rail" type="Rail"/>
	<vehicle id="veh_568_rail" type="Rail"/>
	<vehicle id="veh_569_rail" type="Rail"/>
	<vehicle id="veh_570_rail" type="Rail"/>
	<vehicle id="veh_571_rail" type="Rail"/>
	<vehicle id="veh_572_rail" type="Rail"/>
	<vehicle id="veh_573_rail" type="Rail"/>
	<vehicle id="veh_574_rail" type="Rail"/>
	<vehicle id="veh_575_rail" type="Rail"/>
	<vehicle id="veh_576_rail" type="Rail"/>
	<vehicle id="veh_577_rail" type="Rail"/>
	<vehicle id="veh_578_rail" type="Rail"/>
	<vehicle id="veh_579_rail" type="Rail"/>
	<vehicle id="veh_580_rail" type="Rail"/>
	<vehicle id="veh_581_rail" type="Rail"/>
	<vehicle id="veh_582_rail" type="Rail"/>
	<vehicle id="veh_583_rail" type="Rail"/>
	<vehicle id="veh_584_rail" type="Rail"/>
	<vehicle id="veh_585_rail" type="Rail"/>
	<vehicle id="veh_586_rail" type="Rail"/>
	<vehicle id="veh_587_rail" type="Rail"/>
	<vehicle id="veh_588_rail" type="Rail"/>
	<vehicle id="veh_589_rail" type="Rail"/>
	<vehicle id="veh_590_rail" type="Rail"/>
	<vehicle id="veh_591_rail" type="Rail"/>
	<vehicle id="veh_592_rail" type="Rail"/>
	<vehicle id="veh_593_rail" type="Rail"/>
	<vehicle id="veh_594_rail" type="Rail"/>
	<vehicle id="veh_595_rail" type="Rail"/>
	<vehicle id="veh_596_rail" type="Rail"/>
	<vehicle id="veh_597_rail" type="Rail"/>
	<vehicle id="veh_598_rail" type="Rail"/>
	<vehicle id="veh_599_rail" type="Rail"/>
	<vehicle id="veh_600_rail" type="Rail"/>
	<vehicle id="veh_601_rail" type="Rail"/>
	<vehicle id="veh_602_rail" type="Rail"/>
	<vehicle id="veh_603_rail" type="Rail"/>
	<vehicle id="veh_604_rail" type="Rail"/>
	<vehicle id="veh_605_rail" type="Rail"/>
	<vehicle id="veh_606_rail" type="Rail"/>
	<vehicle id="veh_607_rail" type="Rail"/>
	<vehicle id="veh_608_rail" type="Rail"/>
	<vehicle id="veh_609_rail" type="Rail"/>
	<vehicle id="veh_610_rail" type="Rail"/>
	<vehicle id="veh_611_rail" type="Rail"/>
	<vehicle id="veh_612_rail" type="Rail"/>
	<vehicle id="veh_613_rail" type="Rail"/>
	<vehicle id="veh_614_rail" type="Rail"/>
	<vehicle id="veh_615_rail" type="Rail"/>
	<vehicle id="veh_616_rail" type="Rail"/>
	<vehicle id="veh_617_rail" type="Rail"/>
	<vehicle id="veh_618_rail" type="Rail"/>
	<vehicle id="veh_619_rail" type="Rail"/>
	<vehicle id="veh_620_rail" type="Rail"/>
	<vehicle id="veh_621_rail" type="Rail"/>
	<vehicle id="veh_622_rail" type="Rail"/>
	<vehicle id="veh_623_rail" type="Rail"/>
	<vehicle id="veh_624_rail" type="Rail"/>
	<vehicle id="veh_625_rail" type="Rail"/>
	<vehicle id="veh_626_rail" type="Rail"/>
	<vehicle id="veh_627_rail" type="Rail"/>
	<vehicle id="veh_628_rail" type="Rail"/>
	<vehicle id="veh_629_rail" type="Rail"/>
	<vehicle id="veh_630_rail" type="Rail"/>
	<vehicle id="veh_631_rail" type="Rail"/>
	<vehicle id="veh_632_rail" type="Rail"/>
	<vehicle id="veh_633_rail" type="Rail"/>
	<vehicle id="veh_634_rail" type="Rail"/>
	<vehicle id="veh_635_rail" type="Rail"/>
	<vehicle id="veh_636_rail" type="Rail"/>
	<vehicle id="veh_637_rail" type="Rail"/>
	<vehicle id="veh_638_rail" type="Rail"/>
	<vehicle id="veh_639_rail" type="Rail"/>
	<vehicle id="veh_640_rail" type="Rail"/>
	<vehicle id="veh_641_rail" type="Rail"/>
	<vehicle id="veh_642_rail" type="Rail"/>
	<vehicle id="veh_643_rail" type="Rail"/>
	<vehicle id="veh_644_rail" type="Rail"/>
	<vehicle id="veh_645_rail" type="Rail"/>
	<vehicle id="veh_646_rail" type="Rail"/>
	<vehicle id="veh_647_rail" type="Rail"/>
	<vehicle id="veh_648_rail" type="Rail"/>
	<vehicle id="veh_649_rail" type="Rail"/>
	<vehicle id="veh_650_rail" type="Rail"/>
	<vehicle id="veh_651_rail" type="Rail"/>
	<vehicle id="veh_652_rail" type="Rail"/>
	<vehicle id="veh_653_rail" type="Rail"/>
	<vehicle id="veh_654_rail" type="Rail"/>
	<vehicle id="veh_655_rail" type="Rail"/>
	<vehicle id="veh_656_rail" type="Rail"/>
	<vehicle id="veh_657_rail" type="Rail"/>
	<vehicle id="veh_658_rail" type="Rail"/>
	<vehicle id="veh_659_rail" type="Rail"/>
	<vehicle id="veh_660_rail" type="Rail"/>
	<vehicle id="veh_661_rail" type="Rail"/>
	<vehicle id="veh_662_rail" type="Suburban Railway"/>
	<vehicle id="veh_663_rail" type="Suburban Railway"/>
	<vehicle id="veh_664_rail" type="Suburban Railway"/>
	<vehicle id="veh_665_rail" type="Suburban Railway"/>
	<vehicle id="veh_666_rail" type="Suburban Railway"/>
	<vehicle id="veh_667_rail" type="Suburban Railway"/>
	<vehicle id="veh_668_rail" type="Suburban Railway"/>
	<vehicle id="veh_669_rail" type="Suburban Railway"/>
	<vehicle id="veh_670_rail" type="Suburban Railway"/>
	<vehicle id="veh_671_rail" type="Suburban Railway"/>
	<vehicle id="veh_672_rail" type="Suburban Railway"/>
	<vehicle id="veh_673_rail" type="Suburban Railway"/>
	<vehicle id="veh_674_rail" type="Suburban Railway"/>
	<vehicle id="veh_675_rail" type="Suburban Railway"/>
	<vehicle id="veh_676_rail" type="Suburban Railway"/>
	<vehicle id="veh_677_rail" type="Suburban Railway"/>
	<vehicle id="veh_678_rail" type="Suburban Railway"/>
	<vehicle id="veh_679_rail" type="Suburban Railway"/>
	<vehicle id="veh_680_rail" type="Suburban Railway"/>
	<vehicle id="veh_681_rail" type="Suburban Railway"/>
	<vehicle id="veh_682_rail" type="Suburban Railway"/>
	<vehicle id="veh_683_rail" type="Suburban Railway"/>
	<vehicle id="veh_684_rail" type="Suburban Railway"/>
	<vehicle id="veh_685_rail" type="Suburban Railway"/>
	<vehicle id="veh_686_rail" type="Suburban Railway"/>
	<vehicle id="veh_687_rail" type="Suburban Railway"/>
	<vehicle id="veh_688_rail" type="Suburban Railway"/>
	<vehicle id="veh_689_rail" type="Suburban Railway"/>
	<vehicle id="veh_690_rail" type="Suburban Railway"/>
	<vehicle id="veh_691_rail" type="Suburban Railway"/>
	<vehicle id="veh_692_rail" type="Suburban Railway"/>
	<vehicle id="veh_693_rail" type="Suburban Railway"/>
	<vehicle id="veh_694_rail" type="Suburban Railway"/>
	<vehicle id="veh_695_rail" type="Suburban Railway"/>
	<vehicle id="veh_696_rail" type="Suburban Railway"/>
	<vehicle id="veh_697_rail" type="Suburban Railway"/>
	<vehicle id="veh_698_rail" type="Suburban Railway"/>
	<vehicle id="veh_699_rail" type="Suburban Railway"/>
	<vehicle id="veh_700_rail" type="Suburban Railway"/>
	<vehicle id="veh_701_rail" type="Suburban Railway"/>
	<vehicle id="veh_702_rail" type="Suburban Railway"/>
	<vehicle id="veh_703_rail" type="Suburban Railway"/>
	<vehicle id="veh_704_rail" type="Suburban Railway"/>
	<vehicle id="veh_705_rail" type="Suburban Railway"/>
	<vehicle id="veh_706_rail" type="Suburban Railway"/>
	<vehicle id="veh_707_rail" type="Suburban Railway"/>
	<vehicle id="veh_708_rail" type="Suburban Railway"/>
	<vehicle id="veh_709_rail" type="Suburban Railway"/>
	<vehicle id="veh_710_rail" type="Suburban Railway"/>
	<vehicle id="veh_711_rail" type="Suburban Railway"/>
	<vehicle id="veh_712_rail" type="Suburban Railway"/>
	<vehicle id="veh_713_rail" type="Suburban Railway"/>
	<vehicle id="veh_714_rail" type="Suburban Railway"/>
	<vehicle id="veh_715_rail" type="Suburban Railway"/>
	<vehicle id="veh_716_rail" type="Suburban Railway"/>
	<vehicle id="veh_717_rail" type="Suburban Railway"/>
	<vehicle id="veh_718_rail" type="Suburban Railway"/>
	<vehicle id="veh_719_rail" type="Suburban Railway"/>
	<vehicle id="veh_720_rail" type="Suburban Railway"/>
	<vehicle id="veh_721_rail" type="Suburban Railway"/>
	<vehicle id="veh_722_rail" type="Suburban Railway"/>
	<vehicle id="veh_723_rail" type="Suburban Railway"/>
	<vehicle id="veh_724_rail" type="Suburban Railway"/>
	<vehicle id="veh_725_rail" type="Suburban Railway"/>
	<vehicle id="veh_726_rail" type="Suburban Railway"/>
	<vehicle id="veh_727_rail" type="Suburban Railway"/>
	<vehicle id="veh_728_rail" type="Suburban Railway"/>
	<vehicle id="veh_729_rail" type="Suburban Railway"/>
	<vehicle id="veh_730_rail" type="Suburban Railway"/>
	<vehicle id="veh_731_rail" type="Suburban Railway"/>
	<vehicle id="veh_732_rail" type="Suburban Railway"/>
	<vehicle id="veh_733_rail" type="Suburban Railway"/>
	<vehicle id="veh_734_rail" type="Suburban Railway"/>
	<vehicle id="veh_735_rail" type="Suburban Railway"/>
	<vehicle id="veh_736_rail" type="Suburban Railway"/>
	<vehicle id="veh_737_rail" type="Suburban Railway"/>
	<vehicle id="veh_738_rail" type="Suburban Railway"/>
	<vehicle id="veh_739_rail" type="Suburban Railway"/>
	<vehicle id="veh_740_rail" type="Suburban Railway"/>
	<vehicle id="veh_741_rail" type="Suburban Railway"/>
	<vehicle id="veh_742_rail" type="Suburban Railway"/>
	<vehicle id="veh_743_rail" type="Suburban Railway"/>
	<vehicle id="veh_744_rail" type="Suburban Railway"/>
	<vehicle id="veh_745_rail" type="Suburban Railway"/>
	<vehicle id="veh_746_rail" type="Suburban Railway"/>
	<vehicle id="veh_747_rail" type="Suburban Railway"/>
	<vehicle id="veh_748_rail" type="Suburban Railway"/>
	<vehicle id="veh_749_rail" type="Suburban Railway"/>
	<vehicle id="veh_750_rail" type="Suburban Railway"/>
	<vehicle id="veh_751_rail" type="Suburban Railway"/>
	<vehicle id="veh_752_rail" type="Suburban Railway"/>
	<vehicle id="veh_753_rail" type="Suburban Railway"/>
	<vehicle id="veh_754_rail" type="Suburban Railway"/>
	<vehicle id="veh_755_rail" type="Suburban Railway"/>
	<vehicle id="veh_756_rail" type="Suburban Railway"/>
	<vehicle id="veh_757_rail" type="Suburban Railway"/>
	<vehicle id="veh_758_rail" type="Suburban Railway"/>
	<vehicle id="veh_759_rail" type="Suburban Railway"/>
	<vehicle id="veh_760_rail" type="Suburban Railway"/>
	<vehicle id="veh_761_rail" type="Suburban Railway"/>
	<vehicle id="veh_762_rail" type="Suburban Railway"/>
	<vehicle id="veh_763_rail" type="Suburban Railway"/>
	<vehicle id="veh_764_rail" type="Suburban Railway"/>
	<vehicle id="veh_765_rail" type="Suburban Railway"/>
	<vehicle id="veh_766_rail" type="Suburban Railway"/>
	<vehicle id="veh_767_rail" type="Suburban Railway"/>
	<vehicle id="veh_768_rail" type="Suburban Railway"/>
	<vehicle id="veh_769_rail" type="Suburban Railway"/>
	<vehicle id="veh_770_rail" type="Suburban Railway"/>
	<vehicle id="veh_771_rail" type="Suburban Railway"/>
	<vehicle id="veh_772_rail" type="Suburban Railway"/>
	<vehicle id="veh_773_rail" type="Suburban Railway"/>
	<vehicle id="veh_774_rail" type="Suburban Railway"/>
	<vehicle id="veh_775_rail" type="Suburban Railway"/>
	<vehicle id="veh_776_rail" type="Suburban Railway"/>
	<vehicle id="veh_777_rail" type="Suburban Railway"/>
	<vehicle id="veh_778_rail" type="Suburban Railway"/>
	<vehicle id="veh_779_rail" type="Suburban Railway"/>
	<vehicle id="veh_780_rail" type="Suburban Railway"/>
	<vehicle id="veh_781_rail" type="Suburban Railway"/>
	<vehicle id="veh_782_rail" type="Suburban Railway"/>
	<vehicle id="veh_783_rail" type="Suburban Railway"/>
	<vehicle id="veh_784_rail" type="Suburban Railway"/>
	<vehicle id="veh_785_rail" type="Suburban Railway"/>
	<vehicle id="veh_786_rail" type="Suburban Railway"/>
	<vehicle id="veh_787_rail" type="Suburban Railway"/>
	<vehicle id="veh_788_rail" type="Suburban Railway"/>
	<vehicle id="veh_789_rail" type="Suburban Railway"/>
	<vehicle id="veh_790_rail" type="Suburban Railway"/>
	<vehicle id="veh_791_rail" type="Suburban Railway"/>
	<vehicle id="veh_792_rail" type="Suburban Railway"/>
	<vehicle id="veh_793_rail" type="Suburban Railway"/>
	<vehicle id="veh_794_rail" type="Suburban Railway"/>
	<vehicle id="veh_795_rail" type="Suburban Railway"/>
	<vehicle id="veh_796_rail" type="Rail"/>
	<vehicle id="veh_797_rail" type="Rail"/>
	<vehicle id="veh_798_rail" type="Rail"/>
	<vehicle id="veh_799_rail" type="Rail"/>
	<vehicle id="veh_800_rail" type="Rail"/>
	<vehicle id="veh_801_rail" type="Rail"/>
	<vehicle id="veh_802_rail" type="Rail"/>
	<vehicle id="veh_803_rail" type="Rail"/>
	<vehicle id="veh_804_rail" type="Rail"/>
	<vehicle id="veh_805_rail" type="Rail"/>
	<vehicle id="veh_806_rail" type="Rail"/>
	<vehicle id="veh_807_rail" type="Rail"/>
	<vehicle id="veh_808_rail" type="Rail"/>
	<vehicle id="veh_809_rail" type="Rail"/>
	<vehicle id="veh_810_rail" type="Rail"/>
	<vehicle id="veh_811_rail" type="Rail"/>
	<vehicle id="veh_812_rail" type="Rail"/>
	<vehicle id="veh_813_rail" type="Rail"/>
	<vehicle id="veh_814_rail" type="Rail"/>
	<vehicle id="veh_815_rail" type="Rail"/>
	<vehicle id="veh_816_rail" type="Rail"/>
	<vehicle id="veh_817_rail" type="Rail"/>
	<vehicle id="veh_818_rail" type="Rail"/>
	<vehicle id="veh_819_rail" type="Rail"/>
	<vehicle id="veh_820_rail" type="Rail"/>
	<vehicle id="veh_821_rail" type="Rail"/>
	<vehicle id="veh_822_rail" type="Rail"/>
	<vehicle id="veh_823_rail" type="Rail"/>
	<vehicle id="veh_824_rail" type="Rail"/>
	<vehicle id="veh_825_rail" type="Rail"/>
	<vehicle id="veh_826_rail" type="Rail"/>
	<vehicle id="veh_827_rail" type="Rail"/>
	<vehicle id="veh_828_rail" type="Rail"/>
	<vehicle id="veh_829_rail" type="Rail"/>
	<vehicle id="veh_830_rail" type="Rail"/>
	<vehicle id="veh_831_rail" type="Rail"/>
	<vehicle id="veh_832_rail" type="Rail"/>
	<vehicle id="veh_833_rail" type="Rail"/>
	<vehicle id="veh_834_rail" type="Rail"/>
	<vehicle id="veh_835_rail" type="Rail"/>
	<vehicle id="veh_836_rail" type="Rail"/>
	<vehicle id="veh_837_rail" type="Rail"/>
	<vehicle id="veh_838_rail" type="Rail"/>
	<vehicle id="veh_839_rail" type="Rail"/>
	<vehicle id="veh_840_rail" type="Rail"/>
	<vehicle id="veh_841_rail" type="Rail"/>
	<vehicle id="veh_842_rail" type="Rail"/>
	<vehicle id="veh_843_rail" type="Rail"/>
	<vehicle id="veh_844_rail" type="Rail"/>
	<vehicle id="veh_845_rail" type="Rail"/>
	<vehicle id="veh_846_rail" type="Rail"/>
	<vehicle id="veh_847_rail" type="Rail"/>
	<vehicle id="veh_848_rail" type="Rail"/>
	<vehicle id="veh_849_rail" type="Rail"/>
	<vehicle id="veh_850_rail" type="Rail"/>
	<vehicle id="veh_851_rail" type="Rail"/>
	<vehicle id="veh_852_rail" type="Rail"/>
	<vehicle id="veh_853_rail" type="Rail"/>
	<vehicle id="veh_854_bus" type="Bus"/>
	<vehicle id="veh_855_bus" type="Bus"/>
	<vehicle id="veh_856_bus" type="Bus"/>
	<vehicle id="veh_857_rail" type="Rail"/>
	<vehicle id="veh_858_rail" type="Rail"/>
	<vehicle id="veh_859_rail" type="Rail"/>
	<vehicle id="veh_860_rail" type="Rail"/>
	<vehicle id="veh_861_rail" type="Rail"/>
	<vehicle id="veh_862_rail" type="Rail"/>
	<vehicle id="veh_863_rail" type="Rail"/>
	<vehicle id="veh_864_rail" type="Rail"/>
	<vehicle id="veh_865_rail" type="Rail"/>
	<vehicle id="veh_866_rail" type="Rail"/>
	<vehicle id="veh_867_rail" type="Rail"/>
	<vehicle id="veh_868_rail" type="Rail"/>
	<vehicle id="veh_869_rail" type="Rail"/>
	<vehicle id="veh_870_rail" type="Rail"/>
	<vehicle id="veh_871_rail" type="Rail"/>
	<vehicle id="veh_872_rail" type="Rail"/>
	<vehicle id="veh_873_rail" type="Rail"/>
	<vehicle id="veh_874_rail" type="Rail"/>
	<vehicle id="veh_875_rail" type="Rail"/>
	<vehicle id="veh_876_rail" type="Rail"/>
	<vehicle id="veh_877_rail" type="Rail"/>
	<vehicle id="veh_878_rail" type="Rail"/>
	<vehicle id="veh_879_rail" type="Rail"/>
	<vehicle id="veh_880_rail" type="Rail"/>
	<vehicle id="veh_881_rail" type="Rail"/>
	<vehicle id="veh_882_rail" type="Rail"/>
	<vehicle id="veh_883_rail" type="Rail"/>
	<vehicle id="veh_884_rail" type="Rail"/>
	<vehicle id="veh_885_rail" type="Rail"/>
	<vehicle id="veh_886_rail" type="Rail"/>
	<vehicle id="veh_887_rail" type="Rail"/>
	<vehicle id="veh_888_rail" type="Rail"/>
	<vehicle id="veh_889_rail" type="Rail"/>
	<vehicle id="veh_890_rail" type="Rail"/>
	<vehicle id="veh_891_rail" type="Rail"/>
	<vehicle id="veh_892_rail" type="Rail"/>
	<vehicle id="veh_893_rail" type="Rail"/>
	<vehicle id="veh_894_rail" type="Rail"/>
	<vehicle id="veh_895_rail" type="Rail"/>
	<vehicle id="veh_896_rail" type="Rail"/>
	<vehicle id="veh_897_rail" type="Rail"/>
	<vehicle id="veh_898_rail" type="Rail"/>
	<vehicle id="veh_899_rail" type="Rail"/>
	<vehicle id="veh_900_rail" type="Rail"/>
	<vehicle id="veh_901_rail" type="Rail"/>
	<vehicle id="veh_902_rail" type="Rail"/>
	<vehicle id="veh_903_rail" type="Rail"/>
	<vehicle id="veh_904_rail" type="Rail"/>
	<vehicle id="veh_905_rail" type="Rail"/>
	<vehicle id="veh_906_rail" type="Rail"/>
	<vehicle id="veh_907_rail" type="Rail"/>
	<vehicle id="veh_908_rail" type="Rail"/>
	<vehicle id="veh_909_rail" type="Rail"/>
	<vehicle id="veh_910_rail" type="Rail"/>
	<vehicle id="veh_911_rail" type="Rail"/>
	<vehicle id="veh_912_rail" type="Rail"/>
	<vehicle id="veh_913_rail" type="Rail"/>
	<vehicle id="veh_914_rail" type="Rail"/>
	<vehicle id="veh_915_rail" type="Rail"/>
	<vehicle id="veh_916_rail" type="Rail"/>
	<vehicle id="veh_917_rail" type="Rail"/>
	<vehicle id="veh_918_rail" type="Rail"/>
	<vehicle id="veh_919_rail" type="Rail"/>
	<vehicle id="veh_920_rail" type="Rail"/>
	<vehicle id="veh_921_rail" type="Rail"/>
	<vehicle id="veh_922_rail" type="Rail"/>
	<vehicle id="veh_923_rail" type="Rail"/>
	<vehicle id="veh_924_rail" type="Rail"/>
	<vehicle id="veh_925_rail" type="Rail"/>
	<vehicle id="veh_926_rail" type="Rail"/>
	<vehicle id="veh_927_rail" type="Rail"/>
	<vehicle id="veh_928_rail" type="Rail"/>
	<vehicle id="veh_929_rail" type="Rail"/>
	<vehicle id="veh_930_rail" type="Rail"/>
	<vehicle id="veh_931_rail" type="Rail"/>
	<vehicle id="veh_932_rail" type="Rail"/>
	<vehicle id="veh_933_rail" type="Rail"/>
	<vehicle id="veh_934_rail" type="Rail"/>
	<vehicle id="veh_935_rail" type="Rail"/>
	<vehicle id="veh_936_rail" type="Rail"/>
	<vehicle id="veh_937_rail" type="Rail"/>
	<vehicle id="veh_938_rail" type="Rail"/>
	<vehicle id="veh_939_rail" type="Rail"/>
	<vehicle id="veh_940_rail" type="Rail"/>
	<vehicle id="veh_941_rail" type="Rail"/>
	<vehicle id="veh_942_rail" type="Rail"/>
	<vehicle id="veh_943_rail" type="Rail"/>
	<vehicle id="veh_944_rail" type="Rail"/>
	<vehicle id="veh_945_rail" type="Rail"/>
	<vehicle id="veh_946_rail" type="Rail"/>
	<vehicle id="veh_947_rail" type="Rail"/>
	<vehicle id="veh_948_rail" type="Rail"/>
	<vehicle id="veh_949_rail" type="Rail"/>
	<vehicle id="veh_950_rail" type="Rail"/>
	<vehicle id="veh_951_rail" type="Rail"/>
	<vehicle id="veh_952_rail" type="Rail"/>
	<vehicle id="veh_953_rail" type="Rail"/>
	<vehicle id="veh_954_rail" type="Rail"/>
	<vehicle id="veh_955_rail" type="Rail"/>
	<vehicle id="veh_956_rail" type="Rail"/>
	<vehicle id="veh_957_rail" type="Rail"/>
	<vehicle id="veh_958_rail" type="Rail"/>
	<vehicle id="veh_959_rail" type="Rail"/>
	<vehicle id="veh_960_rail" type="Rail"/>
	<vehicle id="veh_961_rail" type="Rail"/>
	<vehicle id="veh_962_rail" type="Rail"/>
	<vehicle id="veh_963_rail" type="Rail"/>
	<vehicle id="veh_964_rail" type="Rail"/>
	<vehicle id="veh_965_rail" type="Rail"/>
	<vehicle id="veh_966_rail" type="Rail"/>
	<vehicle id="veh_967_rail" type="Rail"/>
	<vehicle id="veh_968_rail" type="Rail"/>
	<vehicle id="veh_969_rail" type="Rail"/>
	<vehicle id="veh_970_rail" type="Rail"/>
	<vehicle id="veh_971_rail" type="Rail"/>
	<vehicle id="veh_972_rail" type="Rail"/>
	<vehicle id="veh_973_rail" type="Rail"/>
	<vehicle id="veh_974_rail" type="Rail"/>
	<vehicle id="veh_975_rail" type="Rail"/>
	<vehicle id="veh_976_rail" type="Rail"/>
	<vehicle id="veh_977_rail" type="Rail"/>
	<vehicle id="veh_978_rail" type="Rail"/>
	<vehicle id="veh_979_rail" type="Rail"/>
	<vehicle id="veh_980_rail" type="Rail"/>
	<vehicle id="veh_981_rail" type="Rail"/>
	<vehicle id="veh_982_rail" type="Rail"/>
	<vehicle id="veh_983_rail" type="Rail"/>
	<vehicle id="veh_984_rail" type="Rail"/>
	<vehicle id="veh_985_rail" type="Rail"/>
	<vehicle id="veh_986_rail" type="Rail"/>
	<vehicle id="veh_987_rail" type="Rail"/>
	<vehicle id="veh_988_rail" type="Rail"/>
	<vehicle id="veh_989_rail" type="Rail"/>
	<vehicle id="veh_990_rail" type="Rail"/>
	<vehicle id="veh_991_rail" type="Rail"/>
	<vehicle id="veh_992_rail" type="Rail"/>
	<vehicle id="veh_993_rail" type="Rail"/>
	<vehicle id="veh_994_rail" type="Rail"/>
	<vehicle id="veh_995_rail" type="Rail"/>
	<vehicle id="veh_996_rail" type="Rail"/>
	<vehicle id="veh_997_rail" type="Rail"/>
	<vehicle id="veh_998_rail" type="Rail"/>
	<vehicle id="veh_999_rail" type="Rail"/>
	<vehicle id="veh_1000_rail" type="Rail"/>
	<vehicle id="veh_1001_rail" type="Rail"/>
	<vehicle id="veh_1002_rail" type="Rail"/>
	<vehicle id="veh_1003_rail" type="Rail"/>
	<vehicle id="veh_1004_rail" type="Rail"/>
	<vehicle id="veh_1005_rail" type="Rail"/>
	<vehicle id="veh_1006_rail" type="Rail"/>
	<vehicle id="veh_1007_rail" type="Rail"/>
	<vehicle id="veh_1008_rail" type="Rail"/>
	<vehicle id="veh_1009_rail" type="Rail"/>
	<vehicle id="veh_1010_rail" type="Rail"/>
	<vehicle id="veh_1011_rail" type="Rail"/>
	<vehicle id="veh_1012_rail" type="Rail"/>
	<vehicle id="veh_1013_rail" type="Rail"/>
	<vehicle id="veh_1014_rail" type="Rail"/>
	<vehicle id="veh_1015_rail" type="Rail"/>
	<vehicle id="veh_1016_rail" type="Rail"/>
	<vehicle id="veh_1017_rail" type="Rail"/>
	<vehicle id="veh_1018_rail" type="Rail"/>
	<vehicle id="veh_1019_rail" type="Rail"/>
	<vehicle id="veh_1020_rail" type="Rail"/>
	<vehicle id="veh_1021_rail" type="Rail"/>
	<vehicle id="veh_1022_rail" type="Rail"/>
	<vehicle id="veh_1023_rail" type="Rail"/>
	<vehicle id="veh_1024_rail" type="Rail"/>
	<vehicle id="veh_1025_rail" type="Rail"/>
	<vehicle id="veh_1026_rail" type="Rail"/>
	<vehicle id="veh_1027_rail" type="Rail"/>
	<vehicle id="veh_1028_rail" type="Rail"/>
	<vehicle id="veh_1029_rail" type="Rail"/>
	<vehicle id="veh_1030_rail" type="Rail"/>
	<vehicle id="veh_1031_rail" type="Rail"/>
	<vehicle id="veh_1032_rail" type="Rail"/>
	<vehicle id="veh_1033_rail" type="Rail"/>
	<vehicle id="veh_1034_rail" type="Rail"/>
	<vehicle id="veh_1035_rail" type="Rail"/>
	<vehicle id="veh_1036_rail" type="Rail"/>
	<vehicle id="veh_1037_rail" type="Rail"/>
	<vehicle id="veh_1038_rail" type="Rail"/>
	<vehicle id="veh_1039_rail" type="Rail"/>
	<vehicle id="veh_1040_rail" type="Rail"/>
	<vehicle id="veh_1041_rail" type="Rail"/>
	<vehicle id="veh_1042_rail" type="Rail"/>
	<vehicle id="veh_1043_rail" type="Rail"/>
	<vehicle id="veh_1044_rail" type="Rail"/>
	<vehicle id="veh_1045_rail" type="Rail"/>
	<vehicle id="veh_1046_rail" type="Rail"/>
	<vehicle id="veh_1047_rail" type="Rail"/>
	<vehicle id="veh_1048_rail" type="Rail"/>
	<vehicle id="veh_1049_rail" type="Rail"/>
	<vehicle id="veh_1050_rail" type="Rail"/>
	<vehicle id="veh_1051_rail" type="Rail"/>
	<vehicle id="veh_1052_rail" type="Rail"/>
	<vehicle id="veh_1053_rail" type="Rail"/>
	<vehicle id="veh_1054_rail" type="Rail"/>
	<vehicle id="veh_1055_rail" type="Rail"/>
	<vehicle id="veh_1056_rail" type="Rail"/>
	<vehicle id="veh_1057_rail" type="Rail"/>
	<vehicle id="veh_1058_rail" type="Rail"/>
	<vehicle id="veh_1059_rail" type="Rail"/>
	<vehicle id="veh_1060_rail" type="Rail"/>
	<vehicle id="veh_1061_rail" type="Rail"/>
	<vehicle id="veh_1062_rail" type="Rail"/>
	<vehicle id="veh_1063_rail" type="Rail"/>
	<vehicle id="veh_1064_rail" type="Rail"/>
	<vehicle id="veh_1065_rail" type="Rail"/>
	<vehicle id="veh_1066_rail" type="Rail"/>
	<vehicle id="veh_1067_rail" type="Rail"/>
	<vehicle id="veh_1068_rail" type="Rail"/>
	<vehicle id="veh_1069_rail" type="Rail"/>
	<vehicle id="veh_1070_rail" type="Rail"/>
	<vehicle id="veh_1071_rail" type="Rail"/>
	<vehicle id="veh_1072_rail" type="Rail"/>
	<vehicle id="veh_1073_rail" type="Rail"/>
	<vehicle id="veh_1074_rail" type="Rail"/>
	<vehicle id="veh_1075_rail" type="Rail"/>
	<vehicle id="veh_1076_rail" type="Rail"/>
	<vehicle id="veh_1077_rail" type="Rail"/>
	<vehicle id="veh_1078_rail" type="Rail"/>
	<vehicle id="veh_1079_rail" type="Rail"/>
	<vehicle id="veh_1080_rail" type="Rail"/>
	<vehicle id="veh_1081_rail" type="Rail"/>
	<vehicle id="veh_1082_rail" type="Rail"/>
	<vehicle id="veh_1083_rail" type="Rail"/>
	<vehicle id="veh_1084_rail" type="Rail"/>
	<vehicle id="veh_1085_rail" type="Rail"/>
	<vehicle id="veh_1086_rail" type="Rail"/>
	<vehicle id="veh_1087_rail" type="Rail"/>
	<vehicle id="veh_1088_rail" type="Rail"/>
	<vehicle id="veh_1089_rail" type="Rail"/>
	<vehicle id="veh_1090_rail" type="Rail"/>
	<vehicle id="veh_1091_rail" type="Rail"/>
	<vehicle id="veh_1092_rail" type="Rail"/>
	<vehicle id="veh_1093_rail" type="Rail"/>
	<vehicle id="veh_1094_rail" type="Rail"/>
	<vehicle id="veh_1095_rail" type="Rail"/>
	<vehicle id="veh_1096_rail" type="Rail"/>
	<vehicle id="veh_1097_rail" type="Rail"/>
	<vehicle id="veh_1098_rail" type="Rail"/>
	<vehicle id="veh_1099_rail" type="Rail"/>
	<vehicle id="veh_1100_rail" type="Rail"/>
	<vehicle id="veh_1101_rail" type="Rail"/>
	<vehicle id="veh_1102_rail" type="Rail"/>
	<vehicle id="veh_1103_rail" type="Rail"/>
	<vehicle id="veh_1104_rail" type="Rail"/>
	<vehicle id="veh_1105_rail" type="Rail"/>
	<vehicle id="veh_1106_rail" type="Rail"/>
	<vehicle id="veh_1107_rail" type="Rail"/>
	<vehicle id="veh_1108_rail" type="Rail"/>
	<vehicle id="veh_1109_rail" type="Rail"/>
	<vehicle id="veh_1110_rail" type="Rail"/>
	<vehicle id="veh_1111_rail" type="Rail"/>
	<vehicle id="veh_1112_rail" type="Rail"/>
	<vehicle id="veh_1113_rail" type="Rail"/>
	<vehicle id="veh_1114_rail" type="Rail"/>
	<vehicle id="veh_1115_rail" type="Rail"/>
	<vehicle id="veh_1116_rail" type="Rail"/>
	<vehicle id="veh_1117_rail" type="Rail"/>
	<vehicle id="veh_1118_rail" type="Rail"/>
	<vehicle id="veh_1119_rail" type="Rail"/>
	<vehicle id="veh_1120_rail" type="Rail"/>
	<vehicle id="veh_1121_rail" type="Rail"/>
	<vehicle id="veh_1122_rail" type="Rail"/>
	<vehicle id="veh_1123_rail" type="Rail"/>
	<vehicle id="veh_1124_rail" type="Rail"/>
	<vehicle id="veh_1125_rail" type="Rail"/>
	<vehicle id="veh_1126_rail" type="Rail"/>
	<vehicle id="veh_1127_rail" type="Rail"/>
	<vehicle id="veh_1128_rail" type="Rail"/>
	<vehicle id="veh_1129_rail" type="Rail"/>
	<vehicle id="veh_1130_rail" type="Rail"/>
	<vehicle id="veh_1131_rail" type="Rail"/>
	<vehicle id="veh_1132_rail" type="Rail"/>
	<vehicle id="veh_1133_rail" type="Rail"/>
	<vehicle id="veh_1134_rail" type="Rail"/>
	<vehicle id="veh_1135_rail" type="Rail"/>
	<vehicle id="veh_1136_rail" type="Rail"/>
	<vehicle id="veh_1137_rail" type="Rail"/>
	<vehicle id="veh_1138_rail" type="Rail"/>
	<vehicle id="veh_1139_rail" type="Rail"/>
	<vehicle id="veh_1140_rail" type="Rail"/>
	<vehicle id="veh_1141_rail" type="Rail"/>
	<vehicle id="veh_1142_rail" type="Rail"/>
	<vehicle id="veh_1143_rail" type="Rail"/>
	<vehicle id="veh_1144_rail" type="Rail"/>
	<vehicle id="veh_1145_rail" type="Rail"/>
	<vehicle id="veh_1146_rail" type="Rail"/>
	<vehicle id="veh_1147_rail" type="Rail"/>
	<vehicle id="veh_1148_rail" type="Rail"/>
	<vehicle id="veh_1149_rail" type="Rail"/>
	<vehicle id="veh_1150_rail" type="Rail"/>
	<vehicle id="veh_1151_rail" type="Rail"/>
	<vehicle id="veh_1152_rail" type="Rail"/>
	<vehicle id="veh_1153_rail" type="Rail"/>
	<vehicle id="veh_1154_rail" type="Rail"/>
	<vehicle id="veh_1155_rail" type="Rail"/>
	<vehicle id="veh_1156_rail" type="Rail"/>
	<vehicle id="veh_1157_rail" type="Rail"/>
	<vehicle id="veh_1158_rail" type="Rail"/>
	<vehicle id="veh_1159_rail" type="Rail"/>
	<vehicle id="veh_1160_rail" type="Rail"/>
	<vehicle id="veh_1161_rail" type="Rail"/>
	<vehicle id="veh_1162_rail" type="Rail"/>
	<vehicle id="veh_1163_rail" type="Rail"/>
	<vehicle id="veh_1164_rail" type="Rail"/>
	<vehicle id="veh_1165_rail" type="Rail"/>
	<vehicle id="veh_1166_rail" type="Rail"/>
	<vehicle id="veh_1167_rail" type="Rail"/>
	<vehicle id="veh_1168_rail" type="Rail"/>
	<vehicle id="veh_1169_rail" type="Rail"/>
	<vehicle id="veh_1170_rail" type="Rail"/>
	<vehicle id="veh_1171_rail" type="Rail"/>
	<vehicle id="veh_1172_rail" type="Rail"/>
	<vehicle id="veh_1173_rail" type="Rail"/>
	<vehicle id="veh_1174_rail" type="Rail"/>
	<vehicle id="veh_1175_rail" type="Rail"/>
	<vehicle id="veh_1176_rail" type="Rail"/>
	<vehicle id="veh_1177_rail" type="Rail"/>
	<vehicle id="veh_1178_rail" type="Rail"/>
	<vehicle id="veh_1179_rail" type="Rail"/>
	<vehicle id="veh_1180_rail" type="Rail"/>
	<vehicle id="veh_1181_rail" type="Rail"/>
	<vehicle id="veh_1182_rail" type="Rail"/>
	<vehicle id="veh_1183_rail" type="Rail"/>
	<vehicle id="veh_1184_rail" type="Rail"/>
	<vehicle id="veh_1185_rail" type="Rail"/>
	<vehicle id="veh_1186_rail" type="Rail"/>
	<vehicle id="veh_1187_rail" type="Rail"/>
	<vehicle id="veh_1188_rail" type="Rail"/>
	<vehicle id="veh_1189_rail" type="Rail"/>
	<vehicle id="veh_1190_rail" type="Rail"/>
	<vehicle id="veh_1191_rail" type="Rail"/>
	<vehicle id="veh_1192_rail" type="Rail"/>
	<vehicle id="veh_1193_rail" type="Rail"/>
	<vehicle id="veh_1194_rail" type="Rail"/>
	<vehicle id="veh_1195_rail" type="Rail"/>
	<vehicle id="veh_1196_rail" type="Rail"/>
	<vehicle id="veh_1197_rail" type="Rail"/>
	<vehicle id="veh_1198_rail" type="Rail"/>
	<vehicle id="veh_1199_rail" type="Rail"/>
	<vehicle id="veh_1200_rail" type="Suburban Railway"/>
	<vehicle id="veh_1201_rail" type="Suburban Railway"/>
	<vehicle id="veh_1202_rail" type="Suburban Railway"/>
	<vehicle id="veh_1203_rail" type="Suburban Railway"/>
	<vehicle id="veh_1204_rail" type="Suburban Railway"/>
	<vehicle id="veh_1205_rail" type="Suburban Railway"/>
	<vehicle id="veh_1206_rail" type="Suburban Railway"/>
	<vehicle id="veh_1207_rail" type="Suburban Railway"/>
	<vehicle id="veh_1208_rail" type="Suburban Railway"/>
	<vehicle id="veh_1209_rail" type="Suburban Railway"/>
	<vehicle id="veh_1210_rail" type="Suburban Railway"/>
	<vehicle id="veh_1211_rail" type="Suburban Railway"/>
	<vehicle id="veh_1212_rail" type="Suburban Railway"/>
	<vehicle id="veh_1213_rail" type="Suburban Railway"/>
	<vehicle id="veh_1214_rail" type="Suburban Railway"/>
	<vehicle id="veh_1215_rail" type="Suburban Railway"/>
	<vehicle id="veh_1216_rail" type="Suburban Railway"/>
	<vehicle id="veh_1217_rail" type="Suburban Railway"/>
	<vehicle id="veh_1218_rail" type="Suburban Railway"/>
	<vehicle id="veh_1219_rail" type="Suburban Railway"/>
	<vehicle id="veh_1220_rail" type="Suburban Railway"/>
	<vehicle id="veh_1221_rail" type="Suburban Railway"/>
	<vehicle id="veh_1222_rail" type="Suburban Railway"/>
	<vehicle id="veh_1223_rail" type="Suburban Railway"/>
	<vehicle id="veh_1224_rail" type="Suburban Railway"/>
	<vehicle id="veh_1225_rail" type="Suburban Railway"/>
	<vehicle id="veh_1226_rail" type="Suburban Railway"/>
	<vehicle id="veh_1227_rail" type="Suburban Railway"/>
	<vehicle id="veh_1228_rail" type="Suburban Railway"/>
	<vehicle id="veh_1229_rail" type="Suburban Railway"/>
	<vehicle id="veh_1230_rail" type="Suburban Railway"/>
	<vehicle id="veh_1231_rail" type="Suburban Railway"/>
	<vehicle id="veh_1232_rail" type="Suburban Railway"/>
	<vehicle id="veh_1233_rail" type="Suburban Railway"/>
	<vehicle id="veh_1234_rail" type="Suburban Railway"/>
	<vehicle id="veh_1235_rail" type="Suburban Railway"/>
	<vehicle id="veh_1236_rail" type="Suburban Railway"/>
	<vehicle id="veh_1237_rail" type="Suburban Railway"/>
	<vehicle id="veh_1238_rail" type="Suburban Railway"/>
	<vehicle id="veh_1239_rail" type="Suburban Railway"/>
	<vehicle id="veh_1240_rail" type="Suburban Railway"/>
	<vehicle id="veh_1241_rail" type="Suburban Railway"/>
	<vehicle id="veh_1242_rail" type="Suburban Railway"/>
	<vehicle id="veh_1243_rail" type="Suburban Railway"/>
	<vehicle id="veh_1244_rail" type="Suburban Railway"/>
	<vehicle id="veh_1245_rail" type="Suburban Railway"/>
	<vehicle id="veh_1246_rail" type="Suburban Railway"/>
	<vehicle id="veh_1247_rail" type="Suburban Railway"/>
	<vehicle id="veh_1248_rail" type="Suburban Railway"/>
	<vehicle id="veh_1249_rail" type="Suburban Railway"/>
	<vehicle id="veh_1250_rail" type="Suburban Railway"/>
	<vehicle id="veh_1251_rail" type="Suburban Railway"/>
	<vehicle id="veh_1252_rail" type="Suburban Railway"/>
	<vehicle id="veh_1253_rail" type="Suburban Railway"/>
	<vehicle id="veh_1254_rail" type="Suburban Railway"/>
	<vehicle id="veh_1255_rail" type="Suburban Railway"/>
	<vehicle id="veh_1256_rail" type="Suburban Railway"/>
	<vehicle id="veh_1257_rail" type="Suburban Railway"/>
	<vehicle id="veh_1258_rail" type="Suburban Railway"/>
	<vehicle id="veh_1259_rail" type="Suburban Railway"/>
	<vehicle id="veh_1260_rail" type="Suburban Railway"/>
	<vehicle id="veh_1261_rail" type="Suburban Railway"/>
	<vehicle id="veh_1262_rail" type="Suburban Railway"/>
	<vehicle id="veh_1263_rail" type="Suburban Railway"/>
	<vehicle id="veh_1264_rail" type="Suburban Railway"/>
	<vehicle id="veh_1265_rail" type="Suburban Railway"/>
	<vehicle id="veh_1266_rail" type="Suburban Railway"/>
	<vehicle id="veh_1267_rail" type="Suburban Railway"/>
	<vehicle id="veh_1268_rail" type="Suburban Railway"/>
	<vehicle id="veh_1269_rail" type="Suburban Railway"/>
	<vehicle id="veh_1270_rail" type="Suburban Railway"/>
	<vehicle id="veh_1271_rail" type="Suburban Railway"/>
	<vehicle id="veh_1272_rail" type="Suburban Railway"/>
	<vehicle id="veh_1273_rail" type="Suburban Railway"/>
	<vehicle id="veh_1274_rail" type="Suburban Railway"/>
	<vehicle id="veh_1275_rail" type="Suburban Railway"/>
	<vehicle id="veh_1276_rail" type="Suburban Railway"/>
	<vehicle id="veh_1277_rail" type="Suburban Railway"/>
	<vehicle id="veh_1278_rail" type="Suburban Railway"/>
	<vehicle id="veh_1279_rail" type="Suburban Railway"/>
	<vehicle id="veh_1280_rail" type="Suburban Railway"/>
	<vehicle id="veh_1281_rail" type="Suburban Railway"/>
	<vehicle id="veh_1282_rail" type="Suburban Railway"/>
	<vehicle id="veh_1283_rail" type="Suburban Railway"/>
	<vehicle id="veh_1284_rail" type="Suburban Railway"/>
	<vehicle id="veh_1285_rail" type="Suburban Railway"/>
	<vehicle id="veh_1286_rail" type="Suburban Railway"/>
	<vehicle id="veh_1287_rail" type="Suburban Railway"/>
	<vehicle id="veh_1288_rail" type="Suburban Railway"/>
	<vehicle id="veh_1289_rail" type="Suburban Railway"/>
	<vehicle id="veh_1290_rail" type="Suburban Railway"/>
	<vehicle id="veh_1291_rail" type="Suburban Railway"/>
	<vehicle id="veh_1292_rail" type="Suburban Railway"/>
	<vehicle id="veh_1293_rail" type="Suburban Railway"/>
	<vehicle id="veh_1294_rail" type="Suburban Railway"/>
	<vehicle id="veh_1295_rail" type="Suburban Railway"/>
	<vehicle id="veh_1296_rail" type="Suburban Railway"/>
	<vehicle id="veh_1297_rail" type="Suburban Railway"/>
	<vehicle id="veh_1298_rail" type="Suburban Railway"/>
	<vehicle id="veh_1299_rail" type="Suburban Railway"/>
	<vehicle id="veh_1300_rail" type="Suburban Railway"/>
	<vehicle id="veh_1301_rail" type="Suburban Railway"/>
	<vehicle id="veh_1302_rail" type="Suburban Railway"/>
	<vehicle id="veh_1303_rail" type="Suburban Railway"/>
	<vehicle id="veh_1304_rail" type="Suburban Railway"/>
	<vehicle id="veh_1305_rail" type="Suburban Railway"/>
	<vehicle id="veh_1306_rail" type="Suburban Railway"/>
	<vehicle id="veh_1307_rail" type="Suburban Railway"/>
	<vehicle id="veh_1308_rail" type="Suburban Railway"/>
	<vehicle id="veh_1309_rail" type="Rail"/>
	<vehicle id="veh_1310_rail" type="Rail"/>
	<vehicle id="veh_1311_rail" type="Rail"/>
	<vehicle id="veh_1312_rail" type="Rail"/>
	<vehicle id="veh_1313_rail" type="Rail"/>
	<vehicle id="veh_1314_rail" type="Rail"/>
	<vehicle id="veh_1315_rail" type="Rail"/>
	<vehicle id="veh_1316_rail" type="Rail"/>
	<vehicle id="veh_1317_rail" type="Rail"/>
	<vehicle id="veh_1318_rail" type="Rail"/>
	<vehicle id="veh_1319_rail" type="Rail"/>
	<vehicle id="veh_1320_rail" type="Rail"/>
	<vehicle id="veh_1321_rail" type="Rail"/>
	<vehicle id="veh_1322_rail" type="Rail"/>
	<vehicle id="veh_1323_rail" type="Rail"/>
	<vehicle id="veh_1324_rail" type="Rail"/>
	<vehicle id="veh_1325_rail" type="Rail"/>
	<vehicle id="veh_1326_rail" type="Rail"/>
	<vehicle id="veh_1327_rail" type="Rail"/>
	<vehicle id="veh_1328_rail" type="Rail"/>
	<vehicle id="veh_1329_rail" type="Rail"/>
	<vehicle id="veh_1330_rail" type="Rail"/>
	<vehicle id="veh_1331_rail" type="Rail"/>
	<vehicle id="veh_1332_rail" type="Rail"/>
	<vehicle id="veh_1333_rail" type="Rail"/>
	<vehicle id="veh_1334_rail" type="Rail"/>
	<vehicle id="veh_1335_rail" type="Rail"/>
	<vehicle id="veh_1336_rail" type="Rail"/>
	<vehicle id="veh_1337_rail" type="Rail"/>
	<vehicle id="veh_1338_rail" type="Rail"/>
	<vehicle id="veh_1339_rail" type="Rail"/>
	<vehicle id="veh_1340_rail" type="Rail"/>
	<vehicle id="veh_1341_rail" type="Rail"/>
	<vehicle id="veh_1342_rail" type="Rail"/>
	<vehicle id="veh_1343_rail" type="Rail"/>
	<vehicle id="veh_1344_rail" type="Rail"/>
	<vehicle id="veh_1345_rail" type="Rail"/>
	<vehicle id="veh_1346_rail" type="Rail"/>
	<vehicle id="veh_1347_rail" type="Rail"/>
	<vehicle id="veh_1348_rail" type="Rail"/>
	<vehicle id="veh_1349_rail" type="Rail"/>
	<vehicle id="veh_1350_rail" type="Rail"/>
	<vehicle id="veh_1351_rail" type="Rail"/>
	<vehicle id="veh_1352_rail" type="Rail"/>
	<vehicle id="veh_1353_rail" type="Rail"/>
	<vehicle id="veh_1354_rail" type="Rail"/>
	<vehicle id="veh_1355_rail" type="Rail"/>
	<vehicle id="veh_1356_rail" type="Rail"/>
	<vehicle id="veh_1357_rail" type="Rail"/>
	<vehicle id="veh_1358_rail" type="Rail"/>
	<vehicle id="veh_1359_rail" type="Rail"/>
	<vehicle id="veh_1360_rail" type="Rail"/>
	<vehicle id="veh_1361_rail" type="Rail"/>
	<vehicle id="veh_1362_rail" type="Rail"/>
	<vehicle id="veh_1363_rail" type="Rail"/>
	<vehicle id="veh_1364_rail" type="Rail"/>
	<vehicle id="veh_1365_rail" type="Rail"/>
	<vehicle id="veh_1366_rail" type="Rail"/>
	<vehicle id="veh_1367_rail" type="Rail"/>
	<vehicle id="veh_1368_rail" type="Rail"/>
	<vehicle id="veh_1369_rail" type="Rail"/>
	<vehicle id="veh_1370_rail" type="Rail"/>
	<vehicle id="veh_1371_rail" type="Rail"/>
	<vehicle id="veh_1372_rail" type="Rail"/>
	<vehicle id="veh_1373_rail" type="Rail"/>
	<vehicle id="veh_1374_rail" type="Rail"/>
	<vehicle id="veh_1375_rail" type="Rail"/>
	<vehicle id="veh_1376_rail" type="Rail"/>
	<vehicle id="veh_1377_rail" type="Rail"/>
	<vehicle id="veh_1378_rail" type="Rail"/>
	<vehicle id="veh_1379_rail" type="Rail"/>
	<vehicle id="veh_1380_rail" type="Rail"/>
	<vehicle id="veh_1381_rail" type="Rail"/>
	<vehicle id="veh_1382_rail" type="Rail"/>
	<vehicle id="veh_1383_rail" type="Rail"/>
	<vehicle id="veh_1384_rail" type="Rail"/>
	<vehicle id="veh_1385_rail" type="Rail"/>
	<vehicle id="veh_1386_rail" type="Rail"/>
	<vehicle id="veh_1387_rail" type="Rail"/>
	<vehicle id="veh_1388_rail" type="Rail"/>
	<vehicle id="veh_1389_rail" type="Rail"/>
	<vehicle id="veh_1390_rail" type="Rail"/>
	<vehicle id="veh_1391_rail" type="Rail"/>
	<vehicle id="veh_1392_rail" type="Rail"/>
	<vehicle id="veh_1393_rail" type="Rail"/>
	<vehicle id="veh_1394_rail" type="Rail"/>
	<vehicle id="veh_1395_rail" type="Rail"/>
	<vehicle id="veh_1396_rail" type="Rail"/>
	<vehicle id="veh_1397_rail" type="Rail"/>
	<vehicle id="veh_1398_rail" type="Rail"/>
	<vehicle id="veh_1399_rail" type="Rail"/>
	<vehicle id="veh_1400_rail" type="Rail"/>
	<vehicle id="veh_1401_rail" type="Rail"/>
	<vehicle id="veh_1402_rail" type="Rail"/>
	<vehicle id="veh_1403_rail" type="Rail"/>
	<vehicle id="veh_1404_rail" type="Rail"/>
	<vehicle id="veh_1405_rail" type="Rail"/>
	<vehicle id="veh_1406_rail" type="Rail"/>
	<vehicle id="veh_1407_rail" type="Rail"/>
	<vehicle id="veh_1408_rail" type="Rail"/>
	<vehicle id="veh_1409_rail" type="Rail"/>
	<vehicle id="veh_1410_rail" type="Rail"/>
	<vehicle id="veh_1411_rail" type="Rail"/>
	<vehicle id="veh_1412_rail" type="Rail"/>
	<vehicle id="veh_1413_rail" type="Rail"/>
	<vehicle id="veh_1414_rail" type="Rail"/>
	<vehicle id="veh_1415_rail" type="Rail"/>
	<vehicle id="veh_1416_rail" type="Rail"/>
	<vehicle id="veh_1417_rail" type="Rail"/>
	<vehicle id="veh_1418_rail" type="Rail"/>
	<vehicle id="veh_1419_rail" type="Rail"/>
	<vehicle id="veh_1420_rail" type="Rail"/>
	<vehicle id="veh_1421_rail" type="Rail"/>
	<vehicle id="veh_1422_rail" type="Rail"/>
	<vehicle id="veh_1423_rail" type="Rail"/>
	<vehicle id="veh_1424_rail" type="Rail"/>
	<vehicle id="veh_1425_rail" type="Rail"/>
	<vehicle id="veh_1426_rail" type="Rail"/>
	<vehicle id="veh_1427_rail" type="Rail"/>
	<vehicle id="veh_1428_rail" type="Rail"/>
	<vehicle id="veh_1429_rail" type="Rail"/>
	<vehicle id="veh_1430_rail" type="Rail"/>
	<vehicle id="veh_1431_rail" type="Rail"/>
	<vehicle id="veh_1432_rail" type="Rail"/>
	<vehicle id="veh_1433_rail" type="Rail"/>
	<vehicle id="veh_1434_rail" type="Rail"/>
	<vehicle id="veh_1435_rail" type="Rail"/>
	<vehicle id="veh_1436_rail" type="Rail"/>
	<vehicle id="veh_1437_rail" type="Rail"/>
	<vehicle id="veh_1438_rail" type="Rail"/>
	<vehicle id="veh_1439_rail" type="Rail"/>
	<vehicle id="veh_1440_rail" type="Rail"/>
	<vehicle id="veh_1441_rail" type="Rail"/>
	<vehicle id="veh_1442_rail" type="Rail"/>
	<vehicle id="veh_1443_rail" type="Rail"/>
	<vehicle id="veh_1444_rail" type="Rail"/>
	<vehicle id="veh_1445_rail" type="Rail"/>
	<vehicle id="veh_1446_rail" type="Rail"/>
	<vehicle id="veh_1447_rail" type="Rail"/>
	<vehicle id="veh_1448_rail" type="Rail"/>
	<vehicle id="veh_1449_rail" type="Rail"/>
	<vehicle id="veh_1450_rail" type="Rail"/>
	<vehicle id="veh_1451_rail" type="Rail"/>
	<vehicle id="veh_1452_rail" type="Rail"/>
	<vehicle id="veh_1453_rail" type="Rail"/>
	<vehicle id="veh_1454_rail" type="Rail"/>
	<vehicle id="veh_1455_rail" type="Rail"/>
	<vehicle id="veh_1456_rail" type="Rail"/>
	<vehicle id="veh_1457_rail" type="Rail"/>
	<vehicle id="veh_1458_rail" type="Rail"/>
	<vehicle id="veh_1459_rail" type="Rail"/>
	<vehicle id="veh_1460_rail" type="Rail"/>
	<vehicle id="veh_1461_rail" type="Rail"/>
	<vehicle id="veh_1462_rail" type="Suburban Railway"/>
	<vehicle id="veh_1463_rail" type="Suburban Railway"/>
	<vehicle id="veh_1464_rail" type="Suburban Railway"/>
	<vehicle id="veh_1465_rail" type="Suburban Railway"/>
	<vehicle id="veh_1466_rail" type="Suburban Railway"/>
	<vehicle id="veh_1467_rail" type="Suburban Railway"/>
	<vehicle id="veh_1468_rail" type="Suburban Railway"/>
	<vehicle id="veh_1469_rail" type="Suburban Railway"/>
	<vehicle id="veh_1470_rail" type="Suburban Railway"/>
	<vehicle id="veh_1471_rail" type="Suburban Railway"/>
	<vehicle id="veh_1472_rail" type="Suburban Railway"/>
	<vehicle id="veh_1473_rail" type="Suburban Railway"/>
	<vehicle id="veh_1474_rail" type="Suburban Railway"/>
	<vehicle id="veh_1475_rail" type="Suburban Railway"/>
	<vehicle id="veh_1476_rail" type="Suburban Railway"/>
	<vehicle id="veh_1477_rail" type="Suburban Railway"/>
	<vehicle id="veh_1478_rail" type="Suburban Railway"/>
	<vehicle id="veh_1479_rail" type="Suburban Railway"/>
	<vehicle id="veh_1480_rail" type="Suburban Railway"/>
	<vehicle id="veh_1481_rail" type="Suburban Railway"/>
	<vehicle id="veh_1482_rail" type="Suburban Railway"/>
	<vehicle id="veh_1483_rail" type="Suburban Railway"/>
	<vehicle id="veh_1484_rail" type="Suburban Railway"/>
	<vehicle id="veh_1485_rail" type="Suburban Railway"/>
	<vehicle id="veh_1486_rail" type="Suburban Railway"/>
	<vehicle id="veh_1487_rail" type="Suburban Railway"/>
	<vehicle id="veh_1488_rail" type="Suburban Railway"/>
	<vehicle id="veh_1489_rail" type="Suburban Railway"/>
	<vehicle id="veh_1490_rail" type="Suburban Railway"/>
	<vehicle id="veh_1491_rail" type="Suburban Railway"/>
	<vehicle id="veh_1492_rail" type="Suburban Railway"/>
	<vehicle id="veh_1493_rail" type="Suburban Railway"/>
	<vehicle id="veh_1494_rail" type="Suburban Railway"/>
	<vehicle id="veh_1495_rail" type="Suburban Railway"/>
	<vehicle id="veh_1496_rail" type="Suburban Railway"/>
	<vehicle id="veh_1497_rail" type="Suburban Railway"/>
	<vehicle id="veh_1498_rail" type="Suburban Railway"/>
	<vehicle id="veh_1499_rail" type="Suburban Railway"/>
	<vehicle id="veh_1500_rail" type="Suburban Railway"/>
	<vehicle id="veh_1501_rail" type="Suburban Railway"/>
	<vehicle id="veh_1502_rail" type="Suburban Railway"/>
	<vehicle id="veh_1503_rail" type="Suburban Railway"/>
	<vehicle id="veh_1504_rail" type="Suburban Railway"/>
	<vehicle id="veh_1505_rail" type="Suburban Railway"/>
	<vehicle id="veh_1506_rail" type="Suburban Railway"/>
	<vehicle id="veh_1507_rail" type="Suburban Railway"/>
	<vehicle id="veh_1508_rail" type="Suburban Railway"/>
	<vehicle id="veh_1509_rail" type="Suburban Railway"/>
	<vehicle id="veh_1510_rail" type="Suburban Railway"/>
	<vehicle id="veh_1511_rail" type="Suburban Railway"/>
	<vehicle id="veh_1512_rail" type="Suburban Railway"/>
	<vehicle id="veh_1513_rail" type="Suburban Railway"/>
	<vehicle id="veh_1514_rail" type="Suburban Railway"/>
	<vehicle id="veh_1515_rail" type="Suburban Railway"/>
	<vehicle id="veh_1516_rail" type="Suburban Railway"/>
	<vehicle id="veh_1517_rail" type="Suburban Railway"/>
	<vehicle id="veh_1518_rail" type="Suburban Railway"/>
	<vehicle id="veh_1519_rail" type="Suburban Railway"/>
	<vehicle id="veh_1520_rail" type="Suburban Railway"/>
	<vehicle id="veh_1521_rail" type="Suburban Railway"/>
	<vehicle id="veh_1522_rail" type="Suburban Railway"/>
	<vehicle id="veh_1523_rail" type="Suburban Railway"/>
	<vehicle id="veh_1524_rail" type="Suburban Railway"/>
	<vehicle id="veh_1525_rail" type="Suburban Railway"/>
	<vehicle id="veh_1526_rail" type="Suburban Railway"/>
	<vehicle id="veh_1527_rail" type="Suburban Railway"/>
	<vehicle id="veh_1528_rail" type="Suburban Railway"/>
	<vehicle id="veh_1529_rail" type="Suburban Railway"/>
	<vehicle id="veh_1530_rail" type="Suburban Railway"/>
	<vehicle id="veh_1531_rail" type="Suburban Railway"/>
	<vehicle id="veh_1532_rail" type="Suburban Railway"/>
	<vehicle id="veh_1533_rail" type="Suburban Railway"/>
	<vehicle id="veh_1534_rail" type="Suburban Railway"/>
	<vehicle id="veh_1535_rail" type="Suburban Railway"/>
	<vehicle id="veh_1536_rail" type="Suburban Railway"/>
	<vehicle id="veh_1537_rail" type="Suburban Railway"/>
	<vehicle id="veh_1538_rail" type="Suburban Railway"/>
	<vehicle id="veh_1539_rail" type="Suburban Railway"/>
	<vehicle id="veh_1540_rail" type="Suburban Railway"/>
	<vehicle id="veh_1541_rail" type="Suburban Railway"/>
	<vehicle id="veh_1542_rail" type="Suburban Railway"/>
	<vehicle id="veh_1543_rail" type="Suburban Railway"/>
	<vehicle id="veh_1544_rail" type="Suburban Railway"/>
	<vehicle id="veh_1545_rail" type="Suburban Railway"/>
	<vehicle id="veh_1546_rail" type="Suburban Railway"/>
	<vehicle id="veh_1547_rail" type="Suburban Railway"/>
	<vehicle id="veh_1548_rail" type="Suburban Railway"/>
	<vehicle id="veh_1549_rail" type="Suburban Railway"/>
	<vehicle id="veh_1550_rail" type="Suburban Railway"/>
	<vehicle id="veh_1551_rail" type="Suburban Railway"/>
	<vehicle id="veh_1552_rail" type="Suburban Railway"/>
	<vehicle id="veh_1553_rail" type="Suburban Railway"/>
	<vehicle id="veh_1554_rail" type="Suburban Railway"/>
	<vehicle id="veh_1555_rail" type="Suburban Railway"/>
	<vehicle id="veh_1556_rail" type="Suburban Railway"/>
	<vehicle id="veh_1557_rail" type="Suburban Railway"/>
	<vehicle id="veh_1558_rail" type="Suburban Railway"/>
	<vehicle id="veh_1559_rail" type="Suburban Railway"/>
	<vehicle id="veh_1560_rail" type="Suburban Railway"/>
	<vehicle id="veh_1561_rail" type="Suburban Railway"/>
	<vehicle id="veh_1562_rail" type="Suburban Railway"/>
	<vehicle id="veh_1563_rail" type="Suburban Railway"/>
	<vehicle id="veh_1564_rail" type="Suburban Railway"/>
	<vehicle id="veh_1565_rail" type="Suburban Railway"/>
	<vehicle id="veh_1566_rail" type="Suburban Railway"/>
	<vehicle id="veh_1567_rail" type="Suburban Railway"/>
	<vehicle id="veh_1568_rail" type="Suburban Railway"/>
	<vehicle id="veh_1569_rail" type="Suburban Railway"/>
	<vehicle id="veh_1570_rail" type="Suburban Railway"/>
	<vehicle id="veh_1571_rail" type="Suburban Railway"/>
	<vehicle id="veh_1572_rail" type="Suburban Railway"/>
	<vehicle id="veh_1573_rail" type="Suburban Railway"/>
	<vehicle id="veh_1574_rail" type="Suburban Railway"/>
	<vehicle id="veh_1575_rail" type="Suburban Railway"/>
	<vehicle id="veh_1576_rail" type="Suburban Railway"/>
	<vehicle id="veh_1577_rail" type="Suburban Railway"/>
	<vehicle id="veh_1578_rail" type="Suburban Railway"/>
	<vehicle id="veh_1579_rail" type="Suburban Railway"/>
	<vehicle id="veh_1580_rail" type="Suburban Railway"/>
	<vehicle id="veh_1581_rail" type="Suburban Railway"/>
	<vehicle id="veh_1582_rail" type="Suburban Railway"/>
	<vehicle id="veh_1583_rail" type="Suburban Railway"/>
	<vehicle id="veh_1584_rail" type="Suburban Railway"/>
	<vehicle id="veh_1585_rail" type="Suburban Railway"/>
	<vehicle id="veh_1586_rail" type="Suburban Railway"/>
	<vehicle id="veh_1587_rail" type="Suburban Railway"/>
	<vehicle id="veh_1588_rail" type="Suburban Railway"/>
	<vehicle id="veh_1589_rail" type="Suburban Railway"/>
	<vehicle id="veh_1590_rail" type="Suburban Railway"/>
	<vehicle id="veh_1591_rail" type="Suburban Railway"/>
	<vehicle id="veh_1592_rail" type="Suburban Railway"/>
	<vehicle id="veh_1593_rail" type="Suburban Railway"/>
	<vehicle id="veh_1594_rail" type="Suburban Railway"/>
	<vehicle id="veh_1595_rail" type="Suburban Railway"/>
	<vehicle id="veh_1596_rail" type="Suburban Railway"/>
	<vehicle id="veh_1597_rail" type="Suburban Railway"/>
	<vehicle id="veh_1598_rail" type="Suburban Railway"/>
	<vehicle id="veh_1599_rail" type="Suburban Railway"/>
	<vehicle id="veh_1600_rail" type="Suburban Railway"/>
	<vehicle id="veh_1601_rail" type="Suburban Railway"/>
	<vehicle id="veh_1602_rail" type="Suburban Railway"/>
	<vehicle id="veh_1603_rail" type="Suburban Railway"/>
	<vehicle id="veh_1604_rail" type="Suburban Railway"/>
	<vehicle id="veh_1605_rail" type="Suburban Railway"/>
	<vehicle id="veh_1606_rail" type="Suburban Railway"/>
	<vehicle id="veh_1607_rail" type="Suburban Railway"/>
	<vehicle id="veh_1608_rail" type="Rail"/>
	<vehicle id="veh_1609_rail" type="Rail"/>
	<vehicle id="veh_1610_rail" type="Rail"/>
	<vehicle id="veh_1611_rail" type="Rail"/>
	<vehicle id="veh_1612_rail" type="Rail"/>
	<vehicle id="veh_1613_rail" type="Rail"/>
	<vehicle id="veh_1614_rail" type="Rail"/>
	<vehicle id="veh_1615_rail" type="Rail"/>
	<vehicle id="veh_1616_rail" type="Rail"/>
	<vehicle id="veh_1617_rail" type="Rail"/>
	<vehicle id="veh_1618_rail" type="Rail"/>
	<vehicle id="veh_1619_rail" type="Rail"/>
	<vehicle id="veh_1620_rail" type="Rail"/>
	<vehicle id="veh_1621_rail" type="Rail"/>
	<vehicle id="veh_1622_rail" type="Rail"/>
	<vehicle id="veh_1623_rail" type="Rail"/>
	<vehicle id="veh_1624_rail" type="Rail"/>
	<vehicle id="veh_1625_rail" type="Rail"/>
	<vehicle id="veh_1626_rail" type="Rail"/>
	<vehicle id="veh_1627_rail" type="Rail"/>
	<vehicle id="veh_1628_rail" type="Rail"/>
	<vehicle id="veh_1629_rail" type="Rail"/>
	<vehicle id="veh_1630_rail" type="Rail"/>
	<vehicle id="veh_1631_rail" type="Rail"/>
	<vehicle id="veh_1632_rail" type="Rail"/>
	<vehicle id="veh_1633_rail" type="Rail"/>
	<vehicle id="veh_1634_rail" type="Rail"/>
	<vehicle id="veh_1635_rail" type="Rail"/>
	<vehicle id="veh_1636_rail" type="Rail"/>
	<vehicle id="veh_1637_rail" type="Rail"/>
	<vehicle id="veh_1638_rail" type="Rail"/>
	<vehicle id="veh_1639_rail" type="Rail"/>
	<vehicle id="veh_1640_rail" type="Rail"/>
	<vehicle id="veh_1641_rail" type="Rail"/>
	<vehicle id="veh_1642_rail" type="Rail"/>
	<vehicle id="veh_1643_rail" type="Rail"/>
	<vehicle id="veh_1644_rail" type="Rail"/>
	<vehicle id="veh_1645_rail" type="Rail"/>
	<vehicle id="veh_1646_rail" type="Rail"/>
	<vehicle id="veh_1647_rail" type="Rail"/>
	<vehicle id="veh_1648_rail" type="Rail"/>
	<vehicle id="veh_1649_rail" type="Rail"/>
	<vehicle id="veh_1650_rail" type="Rail"/>
	<vehicle id="veh_1651_rail" type="Rail"/>
	<vehicle id="veh_1652_rail" type="Rail"/>
	<vehicle id="veh_1653_rail" type="Rail"/>
	<vehicle id="veh_1654_rail" type="Rail"/>
	<vehicle id="veh_1655_rail" type="Rail"/>
	<vehicle id="veh_1656_rail" type="Rail"/>
	<vehicle id="veh_1657_rail" type="Rail"/>
	<vehicle id="veh_1658_rail" type="Rail"/>
	<vehicle id="veh_1659_rail" type="Rail"/>
	<vehicle id="veh_1660_rail" type="Rail"/>
	<vehicle id="veh_1661_rail" type="Rail"/>
	<vehicle id="veh_1662_rail" type="Rail"/>
	<vehicle id="veh_1663_rail" type="Rail"/>
	<vehicle id="veh_1664_rail" type="Rail"/>
	<vehicle id="veh_1665_rail" type="Rail"/>
	<vehicle id="veh_1666_rail" type="Rail"/>
	<vehicle id="veh_1667_rail" type="Rail"/>
	<vehicle id="veh_1668_rail" type="Rail"/>
	<vehicle id="veh_1669_rail" type="Rail"/>
	<vehicle id="veh_1670_rail" type="Rail"/>
	<vehicle id="veh_1671_rail" type="Rail"/>
	<vehicle id="veh_1672_rail" type="Rail"/>
	<vehicle id="veh_1673_rail" type="Rail"/>
	<vehicle id="veh_1674_rail" type="Rail"/>
	<vehicle id="veh_1675_rail" type="Rail"/>
	<vehicle id="veh_1676_rail" type="Rail"/>
	<vehicle id="veh_1677_rail" type="Rail"/>
	<vehicle id="veh_1678_rail" type="Rail"/>
	<vehicle id="veh_1679_rail" type="Rail"/>
	<vehicle id="veh_1680_rail" type="Rail"/>
	<vehicle id="veh_1681_rail" type="Rail"/>
	<vehicle id="veh_1682_rail" type="Rail"/>
	<vehicle id="veh_1683_rail" type="Rail"/>
	<vehicle id="veh_1684_rail" type="Rail"/>
	<vehicle id="veh_1685_rail" type="Rail"/>
	<vehicle id="veh_1686_rail" type="Rail"/>
	<vehicle id="veh_1687_rail" type="Rail"/>
	<vehicle id="veh_1688_rail" type="Rail"/>
	<vehicle id="veh_1689_rail" type="Rail"/>
	<vehicle id="veh_1690_rail" type="Rail"/>
	<vehicle id="veh_1691_rail" type="Rail"/>
	<vehicle id="veh_1692_rail" type="Rail"/>
	<vehicle id="veh_1693_rail" type="Rail"/>
	<vehicle id="veh_1694_rail" type="Rail"/>
	<vehicle id="veh_1695_rail" type="Rail"/>
	<vehicle id="veh_1696_rail" type="Rail"/>
	<vehicle id="veh_1697_rail" type="Rail"/>
	<vehicle id="veh_1698_rail" type="Rail"/>
	<vehicle id="veh_1699_rail" type="Rail"/>
	<vehicle id="veh_1700_rail" type="Rail"/>
	<vehicle id="veh_1701_rail" type="Rail"/>
	<vehicle id="veh_1702_rail" type="Rail"/>
	<vehicle id="veh_1703_rail" type="Rail"/>
	<vehicle id="veh_1704_rail" type="Rail"/>
	<vehicle id="veh_1705_rail" type="Rail"/>
	<vehicle id="veh_1706_rail" type="Rail"/>
	<vehicle id="veh_1707_rail" type="Rail"/>
	<vehicle id="veh_1708_rail" type="Rail"/>
	<vehicle id="veh_1709_rail" type="Rail"/>
	<vehicle id="veh_1710_rail" type="Rail"/>
	<vehicle id="veh_1711_rail" type="Rail"/>
	<vehicle id="veh_1712_rail" type="Rail"/>
	<vehicle id="veh_1713_rail" type="Rail"/>
	<vehicle id="veh_1714_rail" type="Rail"/>
	<vehicle id="veh_1715_rail" type="Rail"/>
	<vehicle id="veh_1716_rail" type="Rail"/>
	<vehicle id="veh_1717_rail" type="Rail"/>
	<vehicle id="veh_1718_rail" type="Rail"/>
	<vehicle id="veh_1719_rail" type="Rail"/>
	<vehicle id="veh_1720_rail" type="Rail"/>
	<vehicle id="veh_1721_rail" type="Rail"/>
	<vehicle id="veh_1722_rail" type="Rail"/>
	<vehicle id="veh_1723_rail" type="Rail"/>
	<vehicle id="veh_1724_rail" type="Rail"/>
	<vehicle id="veh_1725_rail" type="Rail"/>
	<vehicle id="veh_1726_rail" type="Rail"/>
	<vehicle id="veh_1727_rail" type="Rail"/>
	<vehicle id="veh_1728_rail" type="Rail"/>
	<vehicle id="veh_1729_rail" type="Rail"/>
	<vehicle id="veh_1730_rail" type="Rail"/>
	<vehicle id="veh_1731_rail" type="Rail"/>
	<vehicle id="veh_1732_rail" type="Rail"/>
	<vehicle id="veh_1733_rail" type="Rail"/>
	<vehicle id="veh_1734_rail" type="Rail"/>
	<vehicle id="veh_1735_rail" type="Rail"/>
	<vehicle id="veh_1736_rail" type="Rail"/>
	<vehicle id="veh_1737_rail" type="Rail"/>
	<vehicle id="veh_1738_rail" type="Rail"/>
	<vehicle id="veh_1739_rail" type="Rail"/>
	<vehicle id="veh_1740_rail" type="Rail"/>
	<vehicle id="veh_1741_rail" type="Rail"/>
	<vehicle id="veh_1742_rail" type="Rail"/>
	<vehicle id="veh_1743_rail" type="Rail"/>
	<vehicle id="veh_1744_rail" type="Rail"/>
	<vehicle id="veh_1745_rail" type="Rail"/>
	<vehicle id="veh_1746_rail" type="Rail"/>
	<vehicle id="veh_1747_rail" type="Rail"/>
[...]
	<vehicle id="veh_22789_rail" type="Rail"/>
	<vehicle id="veh_22790_rail" type="Rail"/>
	<vehicle id="veh_22791_rail" type="Rail"/>
	<vehicle id="veh_22792_rail" type="Rail"/>
	<vehicle id="veh_22793_rail" type="Rail"/>
	<vehicle id="veh_22794_rail" type="Rail"/>
	<vehicle id="veh_22795_rail" type="Rail"/>
	<vehicle id="veh_22796_rail" type="Rail"/>
	<vehicle id="veh_22797_rail" type="Rail"/>
	<vehicle id="veh_22798_rail" type="Rail"/>
	<vehicle id="veh_22799_rail" type="Rail"/>
	<vehicle id="veh_22800_rail" type="Rail"/>
	<vehicle id="veh_22801_rail" type="Rail"/>
	<vehicle id="veh_22802_rail" type="Rail"/>
	<vehicle id="veh_22803_rail" type="Rail"/>
	<vehicle id="veh_22804_rail" type="Rail"/>
	<vehicle id="veh_22805_rail" type="Rail"/>
	<vehicle id="veh_22806_rail" type="Rail"/>
	<vehicle id="veh_22807_rail" type="Rail"/>
	<vehicle id="veh_22808_rail" type="Rail"/>
	<vehicle id="veh_22809_rail" type="Rail"/>
	<vehicle id="veh_22810_rail" type="Rail"/>
	<vehicle id="veh_22811_rail" type="Rail"/>
	<vehicle id="veh_22812_rail" type="Rail"/>
	<vehicle id="veh_22813_rail" type="Rail"/>
	<vehicle id="veh_22814_rail" type="Rail"/>
	<vehicle id="veh_22815_rail" type="Rail"/>
	<vehicle id="veh_22816_rail" type="Rail"/>
	<vehicle id="veh_22817_rail" type="Rail"/>
	<vehicle id="veh_22818_rail" type="Rail"/>
	<vehicle id="veh_22819_rail" type="Rail"/>
	<vehicle id="veh_22820_rail" type="Rail"/>
	<vehicle id="veh_22821_rail" type="Rail"/>
	<vehicle id="veh_22822_rail" type="Rail"/>
	<vehicle id="veh_22823_rail" type="Rail"/>
	<vehicle id="veh_22824_rail" type="Rail"/>
	<vehicle id="veh_22825_rail" type="Rail"/>
	<vehicle id="veh_22826_rail" type="Rail"/>
	<vehicle id="veh_22827_rail" type="Rail"/>
	<vehicle id="veh_22828_rail" type="Rail"/>
	<vehicle id="veh_22829_rail" type="Rail"/>
	<vehicle id="veh_22830_rail" type="Rail"/>
	<vehicle id="veh_22831_rail" type="Rail"/>
	<vehicle id="veh_22832_rail" type="Rail"/>
	<vehicle id="veh_22833_rail" type="Rail"/>
	<vehicle id="veh_22834_rail" type="Rail"/>
	<vehicle id="veh_22835_rail" type="Rail"/>
	<vehicle id="veh_22836_rail" type="Rail"/>
	<vehicle id="veh_22837_rail" type="Rail"/>
	<vehicle id="veh_22838_rail" type="Rail"/>
	<vehicle id="veh_22839_rail" type="Rail"/>
	<vehicle id="veh_22840_rail" type="Rail"/>
	<vehicle id="veh_22841_rail" type="Rail"/>
	<vehicle id="veh_22842_rail" type="Rail"/>
	<vehicle id="veh_22843_rail" type="Rail"/>
	<vehicle id="veh_22844_rail" type="Rail"/>
	<vehicle id="veh_22845_rail" type="Rail"/>
	<vehicle id="veh_22846_rail" type="Rail"/>
	<vehicle id="veh_22847_rail" type="Rail"/>
	<vehicle id="veh_22848_rail" type="Rail"/>
	<vehicle id="veh_22849_rail" type="Rail"/>
	<vehicle id="veh_22850_rail" type="Rail"/>
	<vehicle id="veh_22851_rail" type="Rail"/>
	<vehicle id="veh_22852_rail" type="Rail"/>
	<vehicle id="veh_22853_rail" type="Suburban Railway"/>
	<vehicle id="veh_22854_rail" type="Suburban Railway"/>
	<vehicle id="veh_22855_rail" type="Rail"/>
	<vehicle id="veh_22856_rail" type="Rail"/>
	<vehicle id="veh_22857_rail" type="Rail"/>
	<vehicle id="veh_22858_rail" type="Rail"/>
	<vehicle id="veh_22859_rail" type="Rail"/>
	<vehicle id="veh_22860_rail" type="Rail"/>
	<vehicle id="veh_22861_rail" type="Rail"/>
	<vehicle id="veh_22862_rail" type="Rail"/>
	<vehicle id="veh_22863_rail" type="Rail"/>
	<vehicle id="veh_22864_rail" type="Rail"/>
	<vehicle id="veh_22865_rail" type="Rail"/>
	<vehicle id="veh_22866_rail" type="Rail"/>
	<vehicle id="veh_22867_rail" type="Rail"/>
	<vehicle id="veh_22868_rail" type="Rail"/>
	<vehicle id="veh_22869_rail" type="Rail"/>
	<vehicle id="veh_22870_rail" type="Rail"/>
	<vehicle id="veh_22871_rail" type="Rail"/>
	<vehicle id="veh_22872_rail" type="Rail"/>
	<vehicle id="veh_22873_rail" type="Rail"/>
	<vehicle id="veh_22874_rail" type="Rail"/>
	<vehicle id="veh_22875_rail" type="Rail"/>
	<vehicle id="veh_22876_rail" type="Rail"/>
	<vehicle id="veh_22877_rail" type="Rail"/>
	<vehicle id="veh_22878_rail" type="Rail"/>
	<vehicle id="veh_22879_rail" type="Rail"/>
	<vehicle id="veh_22880_rail" type="Rail"/>
	<vehicle id="veh_22881_rail" type="Rail"/>
	<vehicle id="veh_22882_rail" type="Rail"/>
	<vehicle id="veh_22883_rail" type="Rail"/>
	<vehicle id="veh_22884_rail" type="Rail"/>
	<vehicle id="veh_22885_rail" type="Rail"/>
	<vehicle id="veh_22886_rail" type="Rail"/>
	<vehicle id="veh_22887_rail" type="Rail"/>
	<vehicle id="veh_22888_rail" type="Rail"/>
	<vehicle id="veh_22889_rail" type="Rail"/>
	<vehicle id="veh_22890_rail" type="Rail"/>
	<vehicle id="veh_22891_rail" type="Rail"/>
	<vehicle id="veh_22892_rail" type="Rail"/>
	<vehicle id="veh_22893_rail" type="Rail"/>
	<vehicle id="veh_22894_rail" type="Rail"/>
	<vehicle id="veh_22895_rail" type="Rail"/>
	<vehicle id="veh_22896_rail" type="Rail"/>
	<vehicle id="veh_22897_rail" type="Rail"/>
	<vehicle id="veh_22898_rail" type="Rail"/>
	<vehicle id="veh_22899_rail" type="Rail"/>
	<vehicle id="veh_22900_rail" type="Rail"/>
	<vehicle id="veh_22901_rail" type="Rail"/>
	<vehicle id="veh_22902_rail" type="Rail"/>
	<vehicle id="veh_22903_rail" type="Rail"/>
	<vehicle id="veh_22904_rail" type="Rail"/>
	<vehicle id="veh_22905_rail" type="Rail"/>
	<vehicle id="veh_22906_rail" type="Rail"/>
	<vehicle id="veh_22907_rail" type="Rail"/>
	<vehicle id="veh_22908_rail" type="Rail"/>
	<vehicle id="veh_22909_rail" type="Rail"/>
	<vehicle id="veh_22910_rail" type="Rail"/>
	<vehicle id="veh_22911_rail" type="Rail"/>
	<vehicle id="veh_22912_rail" type="Rail"/>
	<vehicle id="veh_22913_rail" type="Rail"/>
	<vehicle id="veh_22914_rail" type="Rail"/>
	<vehicle id="veh_22915_rail" type="Rail"/>
	<vehicle id="veh_22916_rail" type="Rail"/>
	<vehicle id="veh_22917_rail" type="Rail"/>
	<vehicle id="veh_22918_rail" type="Rail"/>
	<vehicle id="veh_22919_rail" type="Rail"/>
	<vehicle id="veh_22920_rail" type="Rail"/>
	<vehicle id="veh_22921_rail" type="Rail"/>
	<vehicle id="veh_22922_rail" type="Rail"/>
	<vehicle id="veh_22923_rail" type="Rail"/>
	<vehicle id="veh_22924_rail" type="Rail"/>
	<vehicle id="veh_22925_rail" type="Rail"/>
	<vehicle id="veh_22926_rail" type="Rail"/>
	<vehicle id="veh_22927_rail" type="Rail"/>
	<vehicle id="veh_22928_rail" type="Rail"/>
	<vehicle id="veh_22929_rail" type="Rail"/>
	<vehicle id="veh_22930_rail" type="Rail"/>
	<vehicle id="veh_22931_rail" type="Rail"/>
	<vehicle id="veh_22932_rail" type="Rail"/>
	<vehicle id="veh_22933_rail" type="Rail"/>
	<vehicle id="veh_22934_rail" type="Rail"/>
	<vehicle id="veh_22935_rail" type="Rail"/>
	<vehicle id="veh_22936_rail" type="Rail"/>
	<vehicle id="veh_22937_rail" type="Rail"/>
	<vehicle id="veh_22938_rail" type="Rail"/>
	<vehicle id="veh_22939_rail" type="Rail"/>
	<vehicle id="veh_22940_rail" type="Rail"/>
	<vehicle id="veh_22941_rail" type="Rail"/>
	<vehicle id="veh_22942_rail" type="Rail"/>
	<vehicle id="veh_22943_rail" type="Rail"/>
	<vehicle id="veh_22944_rail" type="Rail"/>
	<vehicle id="veh_22945_rail" type="Rail"/>
	<vehicle id="veh_22946_rail" type="Rail"/>
	<vehicle id="veh_22947_rail" type="Rail"/>
	<vehicle id="veh_22948_rail" type="Rail"/>
	<vehicle id="veh_22949_rail" type="Rail"/>
	<vehicle id="veh_22950_rail" type="Rail"/>
	<vehicle id="veh_22951_rail" type="Rail"/>
	<vehicle id="veh_22952_rail" type="Rail"/>
	<vehicle id="veh_22953_rail" type="Rail"/>
	<vehicle id="veh_22954_rail" type="Rail"/>
	<vehicle id="veh_22955_rail" type="Rail"/>
	<vehicle id="veh_22956_rail" type="Rail"/>
	<vehicle id="veh_22957_rail" type="Rail"/>
	<vehicle id="veh_22958_rail" type="Rail"/>
	<vehicle id="veh_22959_rail" type="Rail"/>
	<vehicle id="veh_22960_rail" type="Rail"/>
	<vehicle id="veh_22961_rail" type="Rail"/>
	<vehicle id="veh_22962_rail" type="Rail"/>
	<vehicle id="veh_22963_rail" type="Rail"/>
	<vehicle id="veh_22964_rail" type="Rail"/>
	<vehicle id="veh_22965_rail" type="Rail"/>
	<vehicle id="veh_22966_rail" type="Rail"/>
	<vehicle id="veh_22967_rail" type="Rail"/>
	<vehicle id="veh_22968_rail" type="Rail"/>
	<vehicle id="veh_22969_rail" type="Rail"/>
	<vehicle id="veh_22970_rail" type="Rail"/>
	<vehicle id="veh_22971_rail" type="Rail"/>
	<vehicle id="veh_22972_rail" type="Rail"/>
	<vehicle id="veh_22973_rail" type="Rail"/>
	<vehicle id="veh_22974_rail" type="Rail"/>
	<vehicle id="veh_22975_rail" type="Rail"/>
	<vehicle id="veh_22976_rail" type="Rail"/>
	<vehicle id="veh_22977_rail" type="Rail"/>
	<vehicle id="veh_22978_rail" type="Rail"/>
	<vehicle id="veh_22979_rail" type="Rail"/>
	<vehicle id="veh_22980_rail" type="Rail"/>
	<vehicle id="veh_22981_rail" type="Rail"/>
	<vehicle id="veh_22982_rail" type="Rail"/>
	<vehicle id="veh_22983_rail" type="Rail"/>
	<vehicle id="veh_22984_rail" type="Rail"/>
	<vehicle id="veh_22985_rail" type="Rail"/>
	<vehicle id="veh_22986_rail" type="Rail"/>
	<vehicle id="veh_22987_rail" type="Rail"/>
	<vehicle id="veh_22988_rail" type="Rail"/>
	<vehicle id="veh_22989_rail" type="Rail"/>
	<vehicle id="veh_22990_rail" type="Rail"/>
	<vehicle id="veh_22991_rail" type="Rail"/>
	<vehicle id="veh_22992_rail" type="Rail"/>
	<vehicle id="veh_22993_rail" type="Rail"/>
	<vehicle id="veh_22994_rail" type="Rail"/>
	<vehicle id="veh_22995_rail" type="Rail"/>
	<vehicle id="veh_22996_rail" type="Rail"/>
	<vehicle id="veh_22997_rail" type="Rail"/>
	<vehicle id="veh_22998_rail" type="Rail"/>
	<vehicle id="veh_22999_rail" type="Rail"/>
	<vehicle id="veh_23000_rail" type="Rail"/>
	<vehicle id="veh_23001_rail" type="Rail"/>
	<vehicle id="veh_23002_rail" type="Rail"/>
	<vehicle id="veh_23003_rail" type="Rail"/>
	<vehicle id="veh_23004_rail" type="Rail"/>
	<vehicle id="veh_23005_rail" type="Rail"/>
	<vehicle id="veh_23006_rail" type="Rail"/>
	<vehicle id="veh_23007_rail" type="Rail"/>
	<vehicle id="veh_23008_rail" type="Rail"/>
	<vehicle id="veh_23009_rail" type="Rail"/>
	<vehicle id="veh_23010_rail" type="Rail"/>
	<vehicle id="veh_23011_rail" type="Rail"/>
	<vehicle id="veh_23012_rail" type="Rail"/>
	<vehicle id="veh_23013_rail" type="Rail"/>
	<vehicle id="veh_23014_rail" type="Rail"/>
	<vehicle id="veh_23015_rail" type="Rail"/>
	<vehicle id="veh_23016_rail" type="Rail"/>
	<vehicle id="veh_23017_rail" type="Rail"/>
	<vehicle id="veh_23018_rail" type="Rail"/>
	<vehicle id="veh_23019_rail" type="Rail"/>
	<vehicle id="veh_23020_rail" type="Rail"/>
	<vehicle id="veh_23021_rail" type="Rail"/>
	<vehicle id="veh_23022_rail" type="Rail"/>
	<vehicle id="veh_23023_rail" type="Rail"/>
	<vehicle id="veh_23024_rail" type="Rail"/>
	<vehicle id="veh_23025_rail" type="Rail"/>
	<vehicle id="veh_23026_rail" type="Rail"/>
	<vehicle id="veh_23027_rail" type="Rail"/>
	<vehicle id="veh_23028_rail" type="Rail"/>
	<vehicle id="veh_23029_rail" type="Rail"/>
	<vehicle id="veh_23030_rail" type="Rail"/>
	<vehicle id="veh_23031_rail" type="Rail"/>
	<vehicle id="veh_23032_rail" type="Rail"/>
	<vehicle id="veh_23033_rail" type="Rail"/>
	<vehicle id="veh_23034_rail" type="Rail"/>
	<vehicle id="veh_23035_rail" type="Rail"/>
	<vehicle id="veh_23036_rail" type="Rail"/>
	<vehicle id="veh_23037_rail" type="Rail"/>
	<vehicle id="veh_23038_rail" type="Rail"/>
	<vehicle id="veh_23039_rail" type="Rail"/>
	<vehicle id="veh_23040_rail" type="Rail"/>
	<vehicle id="veh_23041_rail" type="Rail"/>
	<vehicle id="veh_23042_rail" type="Rail"/>
	<vehicle id="veh_23043_rail" type="Rail"/>
	<vehicle id="veh_23044_rail" type="Rail"/>
	<vehicle id="veh_23045_rail" type="Rail"/>
	<vehicle id="veh_23046_rail" type="Rail"/>
	<vehicle id="veh_23047_rail" type="Rail"/>
	<vehicle id="veh_23048_rail" type="Rail"/>
	<vehicle id="veh_23049_rail" type="Rail"/>
	<vehicle id="veh_23050_rail" type="Rail"/>
	<vehicle id="veh_23051_rail" type="Rail"/>
	<vehicle id="veh_23052_rail" type="Rail"/>
	<vehicle id="veh_23053_rail" type="Rail"/>
	<vehicle id="veh_23054_rail" type="Rail"/>
	<vehicle id="veh_23055_rail" type="Rail"/>
	<vehicle id="veh_23056_rail" type="Rail"/>
	<vehicle id="veh_23057_rail" type="Rail"/>
	<vehicle id="veh_23058_rail" type="Rail"/>
	<vehicle id="veh_23059_rail" type="Rail"/>
	<vehicle id="veh_23060_rail" type="Rail"/>
	<vehicle id="veh_23061_rail" type="Rail"/>
	<vehicle id="veh_23062_rail" type="Rail"/>
	<vehicle id="veh_23063_rail" type="Rail"/>
	<vehicle id="veh_23064_rail" type="Rail"/>
	<vehicle id="veh_23065_rail" type="Rail"/>
	<vehicle id="veh_23066_rail" type="Rail"/>
	<vehicle id="veh_23067_rail" type="Rail"/>
	<vehicle id="veh_23068_rail" type="Rail"/>
	<vehicle id="veh_23069_rail" type="Rail"/>
	<vehicle id="veh_23070_rail" type="Rail"/>
	<vehicle id="veh_23071_rail" type="Rail"/>
	<vehicle id="veh_23072_rail" type="Rail"/>
	<vehicle id="veh_23073_rail" type="Rail"/>
	<vehicle id="veh_23074_rail" type="Rail"/>
	<vehicle id="veh_23075_rail" type="Rail"/>
	<vehicle id="veh_23076_rail" type="Rail"/>
	<vehicle id="veh_23077_rail" type="Rail"/>
	<vehicle id="veh_23078_rail" type="Rail"/>
	<vehicle id="veh_23079_rail" type="Rail"/>
	<vehicle id="veh_23080_rail" type="Rail"/>
	<vehicle id="veh_23081_rail" type="Rail"/>
	<vehicle id="veh_23082_rail" type="Rail"/>
	<vehicle id="veh_23083_rail" type="Rail"/>
	<vehicle id="veh_23084_rail" type="Rail"/>
	<vehicle id="veh_23085_rail" type="Rail"/>
	<vehicle id="veh_23086_rail" type="Rail"/>
	<vehicle id="veh_23087_rail" type="Rail"/>
	<vehicle id="veh_23088_rail" type="Rail"/>
	<vehicle id="veh_23089_rail" type="Rail"/>
	<vehicle id="veh_23090_rail" type="Rail"/>
	<vehicle id="veh_23091_rail" type="Rail"/>
	<vehicle id="veh_23092_rail" type="Rail"/>
	<vehicle id="veh_23093_rail" type="Rail"/>
	<vehicle id="veh_23094_rail" type="Rail"/>
	<vehicle id="veh_23095_rail" type="Rail"/>
	<vehicle id="veh_23096_rail" type="Rail"/>
	<vehicle id="veh_23097_rail" type="Rail"/>
	<vehicle id="veh_23098_rail" type="Rail"/>
	<vehicle id="veh_23099_rail" type="Rail"/>
	<vehicle id="veh_23100_rail" type="Rail"/>
	<vehicle id="veh_23101_rail" type="Rail"/>
	<vehicle id="veh_23102_rail" type="Rail"/>
	<vehicle id="veh_23103_rail" type="Rail"/>
	<vehicle id="veh_23104_rail" type="Rail"/>
	<vehicle id="veh_23105_rail" type="Rail"/>
	<vehicle id="veh_23106_rail" type="Rail"/>
	<vehicle id="veh_23107_rail" type="Rail"/>
	<vehicle id="veh_23108_rail" type="Rail"/>
	<vehicle id="veh_23109_rail" type="Rail"/>
	<vehicle id="veh_23110_rail" type="Rail"/>
	<vehicle id="veh_23111_rail" type="Rail"/>
	<vehicle id="veh_23112_rail" type="Rail"/>
	<vehicle id="veh_23113_rail" type="Rail"/>
	<vehicle id="veh_23114_rail" type="Rail"/>
	<vehicle id="veh_23115_rail" type="Rail"/>
	<vehicle id="veh_23116_rail" type="Rail"/>
	<vehicle id="veh_23117_rail" type="Rail"/>
	<vehicle id="veh_23118_rail" type="Rail"/>
	<vehicle id="veh_23119_rail" type="Rail"/>
	<vehicle id="veh_23120_rail" type="Rail"/>
	<vehicle id="veh_23121_rail" type="Rail"/>
	<vehicle id="veh_23122_rail" type="Rail"/>
	<vehicle id="veh_23123_rail" type="Rail"/>
	<vehicle id="veh_23124_rail" type="Rail"/>
	<vehicle id="veh_23125_rail" type="Rail"/>
	<vehicle id="veh_23126_rail" type="Rail"/>
	<vehicle id="veh_23127_rail" type="Rail"/>
	<vehicle id="veh_23128_rail" type="Rail"/>
	<vehicle id="veh_23129_rail" type="Rail"/>
	<vehicle id="veh_23130_rail" type="Rail"/>
	<vehicle id="veh_23131_rail" type="Rail"/>
	<vehicle id="veh_23132_rail" type="Rail"/>
	<vehicle id="veh_23133_rail" type="Rail"/>
	<vehicle id="veh_23134_rail" type="Rail"/>
	<vehicle id="veh_23135_rail" type="Rail"/>
	<vehicle id="veh_23136_rail" type="Rail"/>
	<vehicle id="veh_23137_rail" type="Rail"/>
	<vehicle id="veh_23138_rail" type="Rail"/>
	<vehicle id="veh_23139_rail" type="Rail"/>
	<vehicle id="veh_23140_rail" type="Rail"/>
	<vehicle id="veh_23141_rail" type="Rail"/>
	<vehicle id="veh_23142_rail" type="Rail"/>
	<vehicle id="veh_23143_rail" type="Rail"/>
	<vehicle id="veh_23144_rail" type="Rail"/>
	<vehicle id="veh_23145_rail" type="Rail"/>
	<vehicle id="veh_23146_rail" type="Rail"/>
	<vehicle id="veh_23147_rail" type="Rail"/>
	<vehicle id="veh_23148_rail" type="Rail"/>
	<vehicle id="veh_23149_rail" type="Rail"/>
	<vehicle id="veh_23150_rail" type="Rail"/>
	<vehicle id="veh_23151_rail" type="Rail"/>
	<vehicle id="veh_23152_rail" type="Rail"/>
	<vehicle id="veh_23153_rail" type="Rail"/>
	<vehicle id="veh_23154_rail" type="Rail"/>
	<vehicle id="veh_23155_rail" type="Rail"/>
	<vehicle id="veh_23156_rail" type="Rail"/>
	<vehicle id="veh_23157_rail" type="Rail"/>
	<vehicle id="veh_23158_rail" type="Rail"/>
	<vehicle id="veh_23159_rail" type="Rail"/>
	<vehicle id="veh_23160_rail" type="Rail"/>
	<vehicle id="veh_23161_rail" type="Rail"/>
	<vehicle id="veh_23162_rail" type="Rail"/>
	<vehicle id="veh_23163_rail" type="Rail"/>
	<vehicle id="veh_23164_rail" type="Rail"/>
	<vehicle id="veh_23165_rail" type="Rail"/>
	<vehicle id="veh_23166_rail" type="Rail"/>
	<vehicle id="veh_23167_rail" type="Rail"/>
	<vehicle id="veh_23168_rail" type="Rail"/>
	<vehicle id="veh_23169_rail" type="Rail"/>
	<vehicle id="veh_23170_rail" type="Rail"/>
	<vehicle id="veh_23171_rail" type="Rail"/>
	<vehicle id="veh_23172_rail" type="Rail"/>
	<vehicle id="veh_23173_rail" type="Rail"/>
	<vehicle id="veh_23174_rail" type="Rail"/>
	<vehicle id="veh_23175_rail" type="Rail"/>
	<vehicle id="veh_23176_rail" type="Rail"/>
	<vehicle id="veh_23177_rail" type="Rail"/>
	<vehicle id="veh_23178_rail" type="Rail"/>
	<vehicle id="veh_23179_rail" type="Rail"/>
	<vehicle id="veh_23180_rail" type="Rail"/>
	<vehicle id="veh_23181_rail" type="Rail"/>
	<vehicle id="veh_23182_rail" type="Rail"/>
	<vehicle id="veh_23183_rail" type="Rail"/>
	<vehicle id="veh_23184_rail" type="Rail"/>
	<vehicle id="veh_23185_rail" type="Rail"/>
	<vehicle id="veh_23186_rail" type="Rail"/>
	<vehicle id="veh_23187_rail" type="Rail"/>
	<vehicle id="veh_23188_rail" type="Rail"/>
	<vehicle id="veh_23189_rail" type="Rail"/>
	<vehicle id="veh_23190_rail" type="Rail"/>
	<vehicle id="veh_23191_rail" type="Rail"/>
	<vehicle id="veh_23192_rail" type="Rail"/>
	<vehicle id="veh_23193_rail" type="Rail"/>
	<vehicle id="veh_23194_rail" type="Rail"/>
	<vehicle id="veh_23195_rail" type="Rail"/>
	<vehicle id="veh_23196_rail" type="Rail"/>
	<vehicle id="veh_23197_rail" type="Rail"/>
	<vehicle id="veh_23198_rail" type="Rail"/>
	<vehicle id="veh_23199_rail" type="Rail"/>
	<vehicle id="veh_23200_rail" type="Rail"/>
	<vehicle id="veh_23201_rail" type="Rail"/>
	<vehicle id="veh_23202_rail" type="Rail"/>
	<vehicle id="veh_23203_rail" type="Rail"/>
	<vehicle id="veh_23204_rail" type="Rail"/>
	<vehicle id="veh_23205_rail" type="Rail"/>
	<vehicle id="veh_23206_rail" type="Rail"/>
	<vehicle id="veh_23207_rail" type="Rail"/>
	<vehicle id="veh_23208_rail" type="Rail"/>
	<vehicle id="veh_23209_rail" type="Rail"/>
	<vehicle id="veh_23210_rail" type="Rail"/>
	<vehicle id="veh_23211_rail" type="Rail"/>
	<vehicle id="veh_23212_rail" type="Rail"/>
	<vehicle id="veh_23213_rail" type="Rail"/>
	<vehicle id="veh_23214_rail" type="Rail"/>
	<vehicle id="veh_23215_rail" type="Rail"/>
	<vehicle id="veh_23216_rail" type="Rail"/>
	<vehicle id="veh_23217_rail" type="Rail"/>
	<vehicle id="veh_23218_rail" type="Rail"/>
	<vehicle id="veh_23219_rail" type="Rail"/>
	<vehicle id="veh_23220_rail" type="Rail"/>
	<vehicle id="veh_23221_rail" type="Rail"/>
	<vehicle id="veh_23222_rail" type="Rail"/>
	<vehicle id="veh_23223_rail" type="Rail"/>
	<vehicle id="veh_23224_rail" type="Rail"/>
	<vehicle id="veh_23225_rail" type="Rail"/>
	<vehicle id="veh_23226_rail" type="Rail"/>
	<vehicle id="veh_23227_rail" type="Rail"/>
	<vehicle id="veh_23228_rail" type="Rail"/>
	<vehicle id="veh_23229_rail" type="Rail"/>
	<vehicle id="veh_23230_rail" type="Rail"/>
	<vehicle id="veh_23231_rail" type="Rail"/>
	<vehicle id="veh_23232_rail" type="Rail"/>
	<vehicle id="veh_23233_rail" type="Rail"/>
	<vehicle id="veh_23234_rail" type="Rail"/>
	<vehicle id="veh_23235_rail" type="Rail"/>
	<vehicle id="veh_23236_rail" type="Rail"/>
	<vehicle id="veh_23237_rail" type="Rail"/>
	<vehicle id="veh_23238_rail" type="Rail"/>
	<vehicle id="veh_23239_rail" type="Rail"/>
	<vehicle id="veh_23240_rail" type="Rail"/>
	<vehicle id="veh_23241_rail" type="Rail"/>
</vehicleDefinitions>