<?xml version="1.0" encoding="UTF-8"?>
<!DOCTYPE transitSchedule SYSTEM "http://www.matsim.org/files/dtd/transitSchedule_v2.dtd">

<transitSchedule>

	<transitStops>
		<stopFacility id="home_stop_in" x="50.0" y="0.0" linkRefId="2-1" name="home_stop_in" isBlocking="false"/>
		<stopFacility id="home_stop_out" x="50.0" y="0.0" linkRefId="1-2" name="home_stop_out" isBlocking="false"/>
		<stopFacility id="work_stop_in" x="10050.0" y="0.0" linkRefId="3-4" name="work_stop_arr" isBlocking="false"/>
		<stopFacility id="work_stop_out" x="10050.0" y="0.0" linkRefId="4-3" name="work_stop_out" isBlocking="false"/>
	</transitStops>
	<transitLine id="city_line" name="city_line">
		<transitRoute id="work_bound">
			<transportMode>bus</transportMode>
			<routeProfile>
				<stop refId="home_stop_out" departureOffset="00:05:00" awaitDeparture="true"/>
				<stop refId="work_stop_in" arrivalOffset="00:15:00" awaitDeparture="true"/>
			</routeProfile>
			<route>
				<link refId="1-2"/>
				<link refId="2-3"/>
				<link refId="3-4"/>
			</route>
			<departures>
				<departure id="early_work_bound" departureTime="07:30:00" vehicleRefId="bus1"/>
				<departure id="late_work_bound" departureTime="08:30:00" vehicleRefId="bus2"/>
			</departures>
		</transitRoute>
		<transitRoute id="home_bound">
			<transportMode>bus</transportMode>
			<routeProfile>
				<stop refId="work_stop_out" departureOffset="00:05:00" awaitDeparture="true"/>
				<stop refId="home_stop_in" arrivalOffset="00:15:00" awaitDeparture="true"/>
			</routeProfile>
			<route>
				<link refId="4-3"/>
				<link refId="3-2"/>
				<link refId="2-1"/>
			</route>
			<departures>
				<departure id="early_home_bound" departureTime="17:30:00" vehicleRefId="bus3"/>
				<departure id="late_home_bound" departureTime="18:30:00" vehicleRefId="bus4"/>
			</departures>
		</transitRoute>
		<transitRoute id="home_bound_duplicate">
			<transportMode>bus</transportMode>
			<routeProfile>
				<stop refId="work_stop_out" departureOffset="00:05:00" awaitDeparture="true"/>
				<stop refId="home_stop_in" arrivalOffset="00:15:00" awaitDeparture="true"/>
			</routeProfile>
			<route>
				<link refId="4-3"/>
				<link refId="3-2"/>
				<link refId="2-1"/>
			</route>
			<departures>
				<departure id="early_home_bound" departureTime="17:30:00" vehicleRefId="bus3"/>
				<departure id="late_home_bound" departureTime="18:30:00" vehicleRefId="bus4"/>
			</departures>
		</transitRoute>
	</transitLine>
</transitSchedule>